<routes>
   <vType id="car" type="passenger" length="5" accel="3.5" decel="2.2" sigma="1.0"/>
   <flow id="carflow" color="1,1,0" type="car" beg="0" period="3"  number="20" from="edge1" to="edge3"/>
</routes>
