<?xml version="1.0" encoding="UTF-8"?>

<!-- generated on Fri 03 Apr 2020 08:38:59 AM UTC by Eclipse SUMO netedit Version 1.2.0
<configuration xmlns:xsi="http://www.w3.org/2001/XMLSchema-instance" xsi:noNamespaceSchemaLocation="http://sumo.dlr.de/xsd/netconvertConfiguration.xsd">

    <input>
        <sumo-net-file value="/home/veins/workspace.omnetpp/new/circles.net.xml"/>
    </input>

    <output>
        <output-file value="/home/veins/workspace.omnetpp/new/circles.net.xml"/>
    </output>

    <processing>
        <geometry.max-grade.fix value="false"/>
        <offset.disable-normalization value="true"/>
        <lefthand value="false"/>
    </processing>

    <junctions>
        <no-turnarounds value="true"/>
        <junctions.corner-detail value="5"/>
        <junctions.limit-turn-speed value="5.5"/>
        <rectangular-lane-cut value="false"/>
    </junctions>

    <pedestrian>
        <walkingareas value="false"/>
    </pedestrian>

</configuration>
-->

<net version="1.1" junctionCornerDetail="5" limitTurnSpeed="5.50" xmlns:xsi="http://www.w3.org/2001/XMLSchema-instance" xsi:noNamespaceSchemaLocation="http://sumo.dlr.de/xsd/net_file.xsd">

    <location netOffset="0.00,0.00" convBoundary="-8667.09,-5271.43,10198.83,4933.87" origBoundary="-10000000000.00,-10000000000.00,10000000000.00,10000000000.00" projParameter="!"/>

    <edge id=":gneJ0_0" function="internal">
        <lane id=":gneJ0_0_0" index="0" speed="13.89" length="2.34" shape="10.00,76.97 10.21,77.06 10.37,77.10 10.53,77.12 10.76,77.10"/>
        <lane id=":gneJ0_0_1" index="1" speed="7.89" length="2.34" shape="8.70,79.89 9.33,80.16 9.79,80.30 10.27,80.33 10.96,80.30"/>
        <lane id=":gneJ0_0_2" index="2" speed="10.04" length="2.34" shape="7.39,82.81 8.45,83.26 9.22,83.49 10.01,83.55 11.17,83.49"/>
    </edge>
    <edge id=":gneJ1_0" function="internal">
        <lane id=":gneJ1_0_0" index="0" speed="13.89" length="1.13" shape="41.53,75.14 41.64,75.13 41.72,75.12 41.79,75.10 41.90,75.07"/>
        <lane id=":gneJ1_0_1" index="1" speed="13.89" length="1.13" shape="41.74,78.33 42.07,78.31 42.30,78.28 42.52,78.23 42.84,78.13"/>
        <lane id=":gneJ1_0_2" index="2" speed="13.89" length="1.13" shape="41.94,81.53 42.50,81.49 42.87,81.44 43.25,81.35 43.78,81.19"/>
    </edge>
    <edge id=":gneJ3_0" function="internal">
        <lane id=":gneJ3_0_0" index="0" speed="4.41" length="3.12" shape="91.33,49.28 91.51,49.03 91.61,48.84 91.65,48.63 91.66,48.32"/>
        <lane id=":gneJ3_0_1" index="1" speed="7.04" length="3.12" shape="93.88,51.22 94.42,50.48 94.71,49.90 94.83,49.27 94.86,48.36"/>
        <lane id=":gneJ3_0_2" index="2" speed="8.93" length="3.12" shape="96.43,53.16 97.32,51.92 97.81,50.96 98.01,49.91 98.06,48.39"/>
    </edge>
    <edge id=":gneJ4_0" function="internal">
        <lane id=":gneJ4_0_0" index="0" speed="4.10" length="1.44" shape="91.95,18.46 91.92,18.09 91.81,17.76 91.62,17.46 91.36,17.20"/>
    </edge>
    <edge id=":gneJ4_1" function="internal">
        <lane id=":gneJ4_1_0" index="0" speed="6.45" length="4.33" shape="95.15,18.49 95.05,17.39 94.72,16.39 94.16,15.50 93.37,14.71"/>
    </edge>
    <edge id=":gneJ4_2" function="internal">
        <lane id=":gneJ4_2_0" index="0" speed="8.15" length="7.21" shape="98.35,18.52 98.18,16.68 97.63,15.02 96.70,13.53 95.39,12.23"/>
    </edge>
    <edge id=":gneJ40_0" function="internal">
        <lane id=":gneJ40_0_0" index="0" speed="13.89" length="3.40" shape="-8633.37,-1386.95 -8632.62,-1386.27 -8632.07,-1385.83 -8631.58,-1385.35 -8631.01,-1384.53"/>
    </edge>
    <edge id=":gneJ41_0" function="internal">
        <lane id=":gneJ41_0_0" index="0" speed="4.14" length="1.36" shape="-5368.84,3977.22 -5368.63,3977.50 -5368.38,3977.72 -5368.09,3977.87 -5367.75,3977.97"/>
    </edge>
    <edge id=":gneJ42_0" function="internal">
        <lane id=":gneJ42_0_0" index="0" speed="13.89" length="0.25" shape="-457.69,4845.47 -457.62,4845.48 -457.57,4845.49 -457.52,4845.49 -457.44,4845.49"/>
    </edge>
    <edge id=":gneJ43_0" function="internal">
        <lane id=":gneJ43_0_0" index="0" speed="13.89" length="0.77" shape="4522.68,4932.25 4522.91,4932.25 4523.07,4932.24 4523.21,4932.19 4523.42,4932.09"/>
    </edge>
    <edge id=":gneJ44_0" function="internal">
        <lane id=":gneJ44_0_0" index="0" speed="13.89" length="0.57" shape="6448.72,3978.11 6448.87,3978.04 6448.97,3977.97 6449.05,3977.90 6449.17,3977.77"/>
    </edge>
    <edge id=":gneJ45_0" function="internal">
        <lane id=":gneJ45_0_0" index="0" speed="13.89" length="0.66" shape="8912.86,1357.93 8913.00,1357.79 8913.08,1357.68 8913.14,1357.56 8913.21,1357.37"/>
    </edge>
    <edge id=":gneJ46_0" function="internal">
        <lane id=":gneJ46_0_0" index="0" speed="3.96" length="1.96" shape="10196.57,-2232.57 10196.68,-2233.08 10196.64,-2233.54 10196.44,-2233.96 10196.09,-2234.34"/>
    </edge>
    <edge id=":gneJ47_0" function="internal">
        <lane id=":gneJ47_0_0" index="0" speed="13.89" length="0.64" shape="8219.72,-3881.31 8219.57,-3881.43 8219.46,-3881.51 8219.34,-3881.56 8219.17,-3881.61"/>
    </edge>
    <edge id=":gneJ48_0" function="internal">
        <lane id=":gneJ48_0_0" index="0" speed="13.89" length="0.68" shape="3707.89,-5269.70 3707.69,-5269.76 3707.56,-5269.78 3707.42,-5269.78 3707.22,-5269.76"/>
    </edge>
    <edge id=":gneJ49_0" function="internal">
        <lane id=":gneJ49_0_0" index="0" speed="13.89" length="0.27" shape="-1047.36,-4679.77 -1047.44,-4679.76 -1047.49,-4679.75 -1047.55,-4679.74 -1047.63,-4679.72"/>
    </edge>
    <edge id=":gneJ5_0" function="internal">
        <lane id=":gneJ5_0_0" index="0" speed="4.38" length="3.22" shape="63.24,-5.54 62.99,-5.73 62.80,-5.84 62.58,-5.88 62.26,-5.89"/>
        <lane id=":gneJ5_0_1" index="1" speed="6.98" length="3.22" shape="65.25,-8.03 64.50,-8.60 63.92,-8.92 63.27,-9.05 62.33,-9.09"/>
        <lane id=":gneJ5_0_2" index="2" speed="8.85" length="3.22" shape="67.26,-10.52 66.02,-11.47 65.04,-12.00 63.96,-12.22 62.39,-12.29"/>
    </edge>
    <edge id=":gneJ50_0" function="internal">
        <lane id=":gneJ50_0_0" index="0" speed="13.89" length="0.44" shape="-5819.82,-3239.38 -5819.95,-3239.34 -5820.03,-3239.31 -5820.11,-3239.27 -5820.22,-3239.20"/>
    </edge>
    <edge id=":gneJ51_0" function="internal">
        <lane id=":gneJ51_0_0" index="0" speed="3.91" length="3.01" shape="-8662.88,-1419.21 -8663.52,-1418.65 -8663.78,-1418.05 -8663.65,-1417.41 -8663.14,-1416.73"/>
    </edge>
    <edge id=":gneJ6_0" function="internal">
        <lane id=":gneJ6_0_0" index="0" speed="13.89" length="2.82" shape="27.38,-6.57 27.10,-6.57 26.91,-6.54 26.73,-6.46 26.50,-6.32"/>
        <lane id=":gneJ6_0_1" index="1" speed="7.28" length="2.82" shape="27.44,-9.77 26.61,-9.76 26.04,-9.68 25.50,-9.46 24.79,-9.03"/>
        <lane id=":gneJ6_0_2" index="2" speed="9.24" length="2.82" shape="27.50,-12.97 26.12,-12.96 25.16,-12.82 24.27,-12.45 23.08,-11.73"/>
    </edge>
    <edge id=":gneJ7_0" function="internal">
        <lane id=":gneJ7_0_0" index="0" speed="4.41" length="3.13" shape="-6.08,14.21 -6.34,14.38 -6.49,14.53 -6.61,14.71 -6.72,15.00"/>
        <lane id=":gneJ7_0_1" index="1" speed="7.04" length="3.13" shape="-7.79,11.51 -8.55,12.01 -9.03,12.45 -9.36,13.00 -9.71,13.85"/>
        <lane id=":gneJ7_0_2" index="2" speed="8.92" length="3.13" shape="-9.49,8.80 -10.77,9.65 -11.56,10.37 -12.12,11.29 -12.70,12.71"/>
    </edge>
    <edge id=":gneJ9_0" function="internal">
        <lane id=":gneJ9_0_0" index="0" speed="4.08" length="1.50" shape="-10.39,67.13 -10.27,67.50 -10.07,67.80 -9.81,68.05 -9.48,68.25"/>
    </edge>
    <edge id=":gneJ9_1" function="internal">
        <lane id=":gneJ9_1_0" index="0" speed="6.41" length="4.49" shape="-13.51,67.81 -13.15,68.91 -12.57,69.83 -11.79,70.59 -10.79,71.17"/>
    </edge>
    <edge id=":gneJ9_2" function="internal">
        <lane id=":gneJ9_2_0" index="0" speed="8.10" length="7.49" shape="-16.64,68.49 -16.03,70.32 -15.07,71.87 -13.76,73.12 -12.09,74.09"/>
    </edge>
    <edge id=":junc1_0" function="internal">
        <lane id=":junc1_0_0" index="0" speed="4.45" length="3.02" shape="80.31,63.26 80.59,63.17 80.78,63.07 80.93,62.93 81.11,62.70"/>
        <lane id=":junc1_0_1" index="1" speed="7.11" length="3.02" shape="81.25,66.32 82.09,66.04 82.65,65.75 83.11,65.33 83.66,64.64"/>
        <lane id=":junc1_0_2" index="2" speed="9.02" length="3.02" shape="82.19,69.38 83.60,68.91 84.52,68.44 85.28,67.73 86.21,66.58"/>
    </edge>
    <edge id=":junce3_0" function="internal">
        <lane id=":junce3_0_0" index="0" speed="13.89" length="2.82" shape="-16.13,39.57 -16.23,39.83 -16.27,40.02 -16.26,40.21 -16.20,40.49"/>
        <lane id=":junce3_0_1" index="1" speed="7.28" length="2.82" shape="-19.12,38.43 -19.40,39.21 -19.52,39.78 -19.49,40.35 -19.33,41.17"/>
        <lane id=":junce3_0_2" index="2" speed="9.24" length="2.82" shape="-22.11,37.28 -22.58,38.59 -22.77,39.53 -22.72,40.49 -22.46,41.85"/>
    </edge>

    <edge id="edge1" from="junc1" to="gneJ3" priority="-1">
        <lane id="edge1_0" index="0" speed="13.89" length="16.87" shape="81.11,62.70 91.33,49.28"/>
        <lane id="edge1_1" index="1" speed="13.89" length="16.87" shape="83.66,64.64 93.88,51.22"/>
        <lane id="edge1_2" index="2" speed="13.89" length="16.87" shape="86.21,66.58 96.43,53.16"/>
    </edge>
    <edge id="edge2" from="gneJ3" to="gneJ4" priority="-1">
        <lane id="edge2_0" index="0" speed="13.89" length="29.86" shape="91.66,48.32 91.95,18.46"/>
        <lane id="edge2_1" index="1" speed="13.89" length="29.86" shape="94.86,48.36 95.15,18.49"/>
        <lane id="edge2_2" index="2" speed="13.89" length="29.86" shape="98.06,48.39 98.35,18.52"/>
    </edge>
    <edge id="edge3" from="gneJ4" to="gneJ5" priority="-1">
        <lane id="edge3_0" index="0" speed="13.89" length="36.17" shape="91.36,17.20 63.24,-5.54"/>
        <lane id="edge3_1" index="1" speed="13.89" length="36.17" shape="93.37,14.71 65.25,-8.03"/>
        <lane id="edge3_2" index="2" speed="13.89" length="36.17" shape="95.39,12.23 67.26,-10.52"/>
    </edge>
    <edge id="edge5" from="gneJ44" to="gneJ45" priority="-1">
        <lane id="edge5_0" index="0" speed="13.89" length="3596.30" shape="6449.17,3977.77 8912.86,1357.93"/>
    </edge>
    <edge id="edge6" from="gneJ48" to="gneJ49" priority="-1">
        <lane id="edge6_0" index="0" speed="13.89" length="4791.04" shape="3707.22,-5269.76 -1047.36,-4679.77"/>
    </edge>
    <edge id="gneE0" from="gneJ0" to="gneJ1" priority="-1">
        <lane id="gneE0_0" index="0" speed="13.89" length="30.84" shape="10.76,77.10 41.53,75.14"/>
        <lane id="gneE0_1" index="1" speed="13.89" length="30.84" shape="10.96,80.30 41.74,78.33"/>
        <lane id="gneE0_2" index="2" speed="13.89" length="30.84" shape="11.17,83.49 41.94,81.53"/>
    </edge>
    <edge id="gneE1" from="gneJ1" to="junc1" priority="-1">
        <lane id="gneE1_0" index="0" speed="13.89" length="40.19" shape="41.90,75.07 80.31,63.26"/>
        <lane id="gneE1_1" index="1" speed="13.89" length="40.19" shape="42.84,78.13 81.25,66.32"/>
        <lane id="gneE1_2" index="2" speed="13.89" length="40.19" shape="43.78,81.19 82.19,69.38"/>
    </edge>
    <edge id="gneE34" from="gneJ40" to="gneJ41" priority="-1">
        <lane id="gneE34_0" index="0" speed="13.89" length="6276.15" shape="-8631.01,-1384.53 -5368.84,3977.22"/>
    </edge>
    <edge id="gneE35" from="gneJ41" to="gneJ42" priority="-1">
        <lane id="gneE35_0" index="0" speed="13.89" length="4986.11" shape="-5367.75,3977.97 -457.69,4845.47"/>
    </edge>
    <edge id="gneE36" from="gneJ42" to="gneJ43" priority="-1">
        <lane id="gneE36_0" index="0" speed="13.89" length="4980.88" shape="-457.44,4845.49 4522.68,4932.25"/>
    </edge>
    <edge id="gneE37" from="gneJ43" to="gneJ44" priority="-1">
        <lane id="gneE37_0" index="0" speed="13.89" length="2148.68" shape="4523.42,4932.09 6448.72,3978.11"/>
    </edge>
    <edge id="gneE39" from="gneJ45" to="gneJ46" priority="-1">
        <lane id="gneE39_0" index="0" speed="13.89" length="3812.45" shape="8913.21,1357.37 10196.57,-2232.57"/>
    </edge>
    <edge id="gneE40" from="gneJ46" to="gneJ47" priority="-1">
        <lane id="gneE40_0" index="0" speed="13.89" length="2572.65" shape="10196.09,-2234.34 8219.72,-3881.31"/>
    </edge>
    <edge id="gneE41" from="gneJ47" to="gneJ48" priority="-1">
        <lane id="gneE41_0" index="0" speed="13.89" length="4720.00" shape="8219.17,-3881.61 3707.89,-5269.70"/>
    </edge>
    <edge id="gneE43" from="gneJ49" to="gneJ50" priority="-1">
        <lane id="gneE43_0" index="0" speed="13.89" length="4984.82" shape="-1047.63,-4679.72 -5819.82,-3239.38"/>
    </edge>
    <edge id="gneE44" from="gneJ50" to="gneJ51" priority="-1">
        <lane id="gneE44_0" index="0" speed="13.89" length="3375.36" shape="-5820.22,-3239.20 -8662.88,-1419.21"/>
    </edge>
    <edge id="gneE47" from="gneJ51" to="gneJ40" priority="-1">
        <lane id="gneE47_0" index="0" speed="13.89" length="42.11" shape="-8663.14,-1416.73 -8633.37,-1386.95"/>
    </edge>
    <edge id="gneE5" from="gneJ5" to="gneJ6" priority="-1">
        <lane id="gneE5_0" index="0" speed="13.89" length="34.89" shape="62.26,-5.89 27.38,-6.57"/>
        <lane id="gneE5_1" index="1" speed="13.89" length="34.89" shape="62.33,-9.09 27.44,-9.77"/>
        <lane id="gneE5_2" index="2" speed="13.89" length="34.89" shape="62.39,-12.29 27.50,-12.97"/>
    </edge>
    <edge id="gneE6" from="gneJ6" to="gneJ7" priority="-1">
        <lane id="gneE6_0" index="0" speed="13.89" length="38.51" shape="26.50,-6.32 -6.08,14.21"/>
        <lane id="gneE6_1" index="1" speed="13.89" length="38.51" shape="24.79,-9.03 -7.79,11.51"/>
        <lane id="gneE6_2" index="2" speed="13.89" length="38.51" shape="23.08,-11.73 -9.49,8.80"/>
    </edge>
    <edge id="gneE7" from="gneJ7" to="junce3" priority="-1">
        <lane id="gneE7_0" index="0" speed="13.89" length="26.32" shape="-6.72,15.00 -16.13,39.57"/>
        <lane id="gneE7_1" index="1" speed="13.89" length="26.32" shape="-9.71,13.85 -19.12,38.43"/>
        <lane id="gneE7_2" index="2" speed="13.89" length="26.32" shape="-12.70,12.71 -22.11,37.28"/>
    </edge>
    <edge id="gneE8" from="junce3" to="gneJ9" priority="-1">
        <lane id="gneE8_0" index="0" speed="13.89" length="27.27" shape="-16.20,40.49 -10.39,67.13"/>
        <lane id="gneE8_1" index="1" speed="13.89" length="27.27" shape="-19.33,41.17 -13.51,67.81"/>
        <lane id="gneE8_2" index="2" speed="13.89" length="27.27" shape="-22.46,41.85 -16.64,68.49"/>
    </edge>
    <edge id="gneE9" from="gneJ9" to="gneJ0" priority="-1">
        <lane id="gneE9_0" index="0" speed="13.89" length="21.34" shape="-9.48,68.25 10.00,76.97"/>
        <lane id="gneE9_1" index="1" speed="13.89" length="21.34" shape="-10.79,71.17 8.70,79.89"/>
        <lane id="gneE9_2" index="2" speed="13.89" length="21.34" shape="-12.09,74.09 7.39,82.81"/>
    </edge>

    <junction id="gneJ0" type="priority" x="8.90" y="85.24" incLanes="gneE9_0 gneE9_1 gneE9_2" intLanes=":gneJ0_0_0 :gneJ0_0_1 :gneJ0_0_2" shape="11.27,85.09 10.66,75.51 6.73,84.27 8.33,84.93 8.93,85.09 9.54,85.15 10.28,85.14">
        <request index="0" response="000" foes="000" cont="0"/>
        <request index="1" response="000" foes="000" cont="0"/>
        <request index="2" response="000" foes="000" cont="0"/>
    </junction>
    <junction id="gneJ1" type="priority" x="43.17" y="83.05" incLanes="gneE0_0 gneE0_1 gneE0_2" intLanes=":gneJ1_0_0 :gneJ1_0_1 :gneJ1_0_2" shape="44.25,82.72 41.43,73.54 42.04,83.12 42.87,83.06 43.16,83.02 43.45,82.95 43.79,82.86">
        <request index="0" response="000" foes="000" cont="0"/>
        <request index="1" response="000" foes="000" cont="0"/>
        <request index="2" response="000" foes="000" cont="0"/>
    </junction>
    <junction id="gneJ3" type="priority" x="99.63" y="51.59" incLanes="edge1_0 edge1_1 edge1_2" intLanes=":gneJ3_0_0 :gneJ3_0_1 :gneJ3_0_2" shape="99.66,48.40 90.06,48.31 97.70,54.13 99.02,52.24 99.36,51.50 99.55,50.70 99.63,49.71">
        <request index="0" response="000" foes="000" cont="0"/>
        <request index="1" response="000" foes="000" cont="0"/>
        <request index="2" response="000" foes="000" cont="0"/>
    </junction>
    <junction id="gneJ4" type="priority" x="100.00" y="13.90" incLanes="edge2_0 edge2_1 edge2_2" intLanes=":gneJ4_0_0 :gneJ4_1_0 :gneJ4_2_0" shape="96.39,10.98 90.35,18.45 99.95,18.54 99.58,15.64 99.09,14.33 98.39,13.12 97.49,12.00">
        <request index="0" response="000" foes="000" cont="0"/>
        <request index="1" response="000" foes="000" cont="0"/>
        <request index="2" response="000" foes="000" cont="0"/>
    </junction>
    <junction id="gneJ40" type="priority" x="-8632.38" y="-1383.70" incLanes="gneE47_0" intLanes=":gneJ40_0_0" shape="-8632.38,-1383.70 -8629.64,-1385.36 -8630.45,-1386.48 -8630.81,-1386.83 -8631.19,-1387.14 -8631.65,-1387.53 -8632.24,-1388.08 -8634.50,-1385.82 -8633.65,-1385.08 -8633.33,-1384.84 -8633.04,-1384.58 -8632.73,-1384.23">
        <request index="0" response="0" foes="0" cont="0"/>
    </junction>
    <junction id="gneJ41" type="priority" x="-5369.46" y="3979.29" incLanes="gneE34_0" intLanes=":gneJ41_0_0" shape="-5368.03,3979.54 -5367.48,3976.39 -5370.21,3978.05 -5369.63,3978.77 -5369.29,3979.04 -5368.91,3979.26 -5368.49,3979.43">
        <request index="0" response="0" foes="0" cont="0"/>
    </junction>
    <junction id="gneJ42" type="priority" x="-457.72" y="4847.09" incLanes="gneE35_0" intLanes=":gneJ42_0_0" shape="-457.47,4847.09 -457.42,4843.89 -457.97,4847.04 -457.79,4847.07 -457.72,4847.08 -457.66,4847.09">
        <request index="0" response="0" foes="0" cont="0"/>
    </junction>
    <junction id="gneJ43" type="priority" x="4523.43" y="4933.87" incLanes="gneE36_0" intLanes=":gneJ43_0_0" shape="4524.13,4933.52 4522.71,4930.65 4522.65,4933.85 4523.22,4933.85 4523.42,4933.82 4523.61,4933.76 4523.84,4933.66">
        <request index="0" response="0" foes="0" cont="0"/>
    </junction>
    <junction id="gneJ44" type="priority" x="6449.94" y="3979.29" incLanes="gneE37_0" intLanes=":gneJ44_0_0" shape="6450.34,3978.87 6448.01,3976.68 6449.43,3979.55 6449.80,3979.35 6449.93,3979.27 6450.04,3979.17 6450.17,3979.05">
        <request index="0" response="0" foes="0" cont="0"/>
    </junction>
    <junction id="gneJ45" type="priority" x="8914.49" y="1358.54" incLanes="edge5_0" intLanes=":gneJ45_0_0" shape="8914.71,1357.91 8911.70,1356.84 8914.03,1359.03 8914.36,1358.66 8914.46,1358.52 8914.54,1358.37 8914.62,1358.18">
        <request index="0" response="0" foes="0" cont="0"/>
    </junction>
    <junction id="gneJ46" type="priority" x="10198.83" y="-2234.14" incLanes="gneE39_0" intLanes=":gneJ46_0_0" shape="10197.11,-2235.57 10195.06,-2233.11 10198.08,-2232.03 10198.30,-2233.36 10198.21,-2233.97 10197.98,-2234.54 10197.61,-2235.07">
        <request index="0" response="0" foes="0" cont="0"/>
    </junction>
    <junction id="gneJ47" type="priority" x="8220.25" y="-3882.95" incLanes="gneE40_0" intLanes=":gneJ47_0_0" shape="8218.69,-3880.08 8220.74,-3882.54 8220.37,-3882.84 8220.23,-3882.93 8220.08,-3883.00 8219.89,-3883.06 8219.64,-3883.14">
        <request index="0" response="0" foes="0" cont="0"/>
    </junction>
    <junction id="gneJ48" type="priority" x="3707.70" y="-5271.43" incLanes="gneE41_0" intLanes=":gneJ48_0_0" shape="3707.42,-5268.17 3708.36,-5271.23 3707.87,-5271.37 3707.70,-5271.39 3707.52,-5271.40 3707.31,-5271.38 3707.02,-5271.35">
        <request index="0" response="0" foes="0" cont="0"/>
    </junction>
    <junction id="gneJ49" type="priority" x="-1047.83" y="-4681.33" incLanes="edge6_0" intLanes=":gneJ49_0_0" shape="-1047.16,-4678.19 -1047.56,-4681.36 -1047.76,-4681.34 -1047.83,-4681.32 -1047.89,-4681.31 -1048.09,-4681.25">
        <request index="0" response="0" foes="0" cont="0"/>
    </junction>
    <junction id="gneJ5" type="priority" x="65.71" y="-13.83" incLanes="edge3_0 edge3_1 edge3_2" intLanes=":gneJ5_0_0 :gneJ5_0_1 :gneJ5_0_2" shape="62.23,-4.30 68.27,-11.76 66.37,-13.17 65.60,-13.54 64.78,-13.75 63.76,-13.85 62.42,-13.89">
        <request index="0" response="000" foes="000" cont="0"/>
        <request index="1" response="000" foes="000" cont="0"/>
        <request index="2" response="000" foes="000" cont="0"/>
    </junction>
    <junction id="gneJ50" type="priority" x="-5820.71" y="-3240.78" incLanes="gneE43_0" intLanes=":gneJ50_0_0" shape="-5819.36,-3237.85 -5820.29,-3240.91 -5820.60,-3240.81 -5820.71,-3240.77 -5820.81,-3240.72 -5820.93,-3240.65 -5821.09,-3240.54">
        <request index="0" response="0" foes="0" cont="0"/>
    </junction>
    <junction id="gneJ51" type="priority" x="-8667.09" y="-1418.41" incLanes="gneE44_0" intLanes=":gneJ51_0_0" shape="-8664.28,-1415.60 -8662.01,-1417.86 -8663.74,-1420.55 -8665.29,-1419.05 -8665.55,-1418.24 -8665.47,-1417.40 -8665.04,-1416.52">
        <request index="0" response="0" foes="0" cont="0"/>
    </junction>
    <junction id="gneJ6" type="priority" x="24.66" y="-14.62" incLanes="gneE5_0 gneE5_1 gneE5_2" intLanes=":gneJ6_0_0 :gneJ6_0_1 :gneJ6_0_2" shape="27.35,-4.97 27.53,-14.56 25.45,-14.53 24.72,-14.40 24.03,-14.13 23.24,-13.71 22.23,-13.09">
        <request index="0" response="000" foes="000" cont="0"/>
        <request index="1" response="000" foes="000" cont="0"/>
        <request index="2" response="000" foes="000" cont="0"/>
    </junction>
    <junction id="gneJ7" type="priority" x="-13.05" y="9.15" incLanes="gneE6_0 gneE6_1 gneE6_2" intLanes=":gneJ7_0_0 :gneJ7_0_1 :gneJ7_0_2" shape="-5.23,15.57 -10.35,7.45 -12.24,8.75 -12.82,9.33 -13.28,10.02 -13.71,10.92 -14.19,12.13">
        <request index="0" response="000" foes="000" cont="0"/>
        <request index="1" response="000" foes="000" cont="0"/>
        <request index="2" response="000" foes="000" cont="0"/>
    </junction>
    <junction id="gneJ9" type="priority" x="-17.17" y="73.57" incLanes="gneE8_0 gneE8_1 gneE8_2" intLanes=":gneJ9_0_0 :gneJ9_1_0 :gneJ9_2_0" shape="-12.75,75.55 -8.82,66.79 -18.20,68.84 -17.14,71.69 -16.32,72.88 -15.32,73.92 -14.13,74.81">
        <request index="0" response="000" foes="000" cont="0"/>
        <request index="1" response="000" foes="000" cont="0"/>
        <request index="2" response="000" foes="000" cont="0"/>
    </junction>
    <junction id="junc1" type="priority" x="85.61" y="70.00" incLanes="gneE1_0 gneE1_1 gneE1_2" intLanes=":junc1_0_0 :junc1_0_1 :junc1_0_2" shape="87.48,67.55 79.84,61.73 82.66,70.91 84.76,70.17 85.46,69.78 86.06,69.26 86.70,68.55">
        <request index="0" response="000" foes="000" cont="0"/>
        <request index="1" response="000" foes="000" cont="0"/>
        <request index="2" response="000" foes="000" cont="0"/>
    </junction>
    <junction id="junce3" type="priority" x="-24.63" y="39.39" incLanes="gneE7_0 gneE7_1 gneE7_2" intLanes=":junce3_0_0 :junce3_0_1 :junce3_0_2" shape="-24.02,42.19 -14.64,40.14 -23.60,36.71 -24.28,38.68 -24.40,39.41 -24.39,40.15 -24.26,41.03">
        <request index="0" response="000" foes="000" cont="0"/>
        <request index="1" response="000" foes="000" cont="0"/>
        <request index="2" response="000" foes="000" cont="0"/>
    </junction>

    <connection from="edge1" to="edge2" fromLane="0" toLane="0" via=":gneJ3_0_0" dir="s" state="M"/>
    <connection from="edge1" to="edge2" fromLane="1" toLane="1" via=":gneJ3_0_1" dir="s" state="M"/>
    <connection from="edge1" to="edge2" fromLane="2" toLane="2" via=":gneJ3_0_2" dir="s" state="M"/>
    <connection from="edge2" to="edge3" fromLane="0" toLane="0" via=":gneJ4_0_0" dir="r" state="M"/>
    <connection from="edge2" to="edge3" fromLane="1" toLane="1" via=":gneJ4_1_0" dir="r" state="M"/>
    <connection from="edge2" to="edge3" fromLane="2" toLane="2" via=":gneJ4_2_0" dir="r" state="M"/>
    <connection from="edge3" to="gneE5" fromLane="0" toLane="0" via=":gneJ5_0_0" dir="s" state="M"/>
    <connection from="edge3" to="gneE5" fromLane="1" toLane="1" via=":gneJ5_0_1" dir="s" state="M"/>
    <connection from="edge3" to="gneE5" fromLane="2" toLane="2" via=":gneJ5_0_2" dir="s" state="M"/>
    <connection from="edge5" to="gneE39" fromLane="0" toLane="0" via=":gneJ45_0_0" dir="s" state="M"/>
    <connection from="edge6" to="gneE43" fromLane="0" toLane="0" via=":gneJ49_0_0" dir="s" state="M"/>
    <connection from="gneE0" to="gneE1" fromLane="0" toLane="0" via=":gneJ1_0_0" dir="s" state="M"/>
    <connection from="gneE0" to="gneE1" fromLane="1" toLane="1" via=":gneJ1_0_1" dir="s" state="M"/>
    <connection from="gneE0" to="gneE1" fromLane="2" toLane="2" via=":gneJ1_0_2" dir="s" state="M"/>
    <connection from="gneE1" to="edge1" fromLane="0" toLane="0" via=":junc1_0_0" dir="s" state="M"/>
    <connection from="gneE1" to="edge1" fromLane="1" toLane="1" via=":junc1_0_1" dir="s" state="M"/>
    <connection from="gneE1" to="edge1" fromLane="2" toLane="2" via=":junc1_0_2" dir="s" state="M"/>
    <connection from="gneE34" to="gneE35" fromLane="0" toLane="0" via=":gneJ41_0_0" dir="r" state="M"/>
    <connection from="gneE35" to="gneE36" fromLane="0" toLane="0" via=":gneJ42_0_0" dir="s" state="M"/>
    <connection from="gneE36" to="gneE37" fromLane="0" toLane="0" via=":gneJ43_0_0" dir="s" state="M"/>
    <connection from="gneE37" to="edge5" fromLane="0" toLane="0" via=":gneJ44_0_0" dir="s" state="M"/>
    <connection from="gneE39" to="gneE40" fromLane="0" toLane="0" via=":gneJ46_0_0" dir="r" state="M"/>
    <connection from="gneE40" to="gneE41" fromLane="0" toLane="0" via=":gneJ47_0_0" dir="s" state="M"/>
    <connection from="gneE41" to="edge6" fromLane="0" toLane="0" via=":gneJ48_0_0" dir="s" state="M"/>
    <connection from="gneE43" to="gneE44" fromLane="0" toLane="0" via=":gneJ50_0_0" dir="s" state="M"/>
    <connection from="gneE44" to="gneE47" fromLane="0" toLane="0" via=":gneJ51_0_0" dir="r" state="M"/>
    <connection from="gneE47" to="gneE34" fromLane="0" toLane="0" via=":gneJ40_0_0" dir="s" state="M"/>
    <connection from="gneE5" to="gneE6" fromLane="0" toLane="0" via=":gneJ6_0_0" dir="s" state="M"/>
    <connection from="gneE5" to="gneE6" fromLane="1" toLane="1" via=":gneJ6_0_1" dir="s" state="M"/>
    <connection from="gneE5" to="gneE6" fromLane="2" toLane="2" via=":gneJ6_0_2" dir="s" state="M"/>
    <connection from="gneE6" to="gneE7" fromLane="0" toLane="0" via=":gneJ7_0_0" dir="s" state="M"/>
    <connection from="gneE6" to="gneE7" fromLane="1" toLane="1" via=":gneJ7_0_1" dir="s" state="M"/>
    <connection from="gneE6" to="gneE7" fromLane="2" toLane="2" via=":gneJ7_0_2" dir="s" state="M"/>
    <connection from="gneE7" to="gneE8" fromLane="0" toLane="0" via=":junce3_0_0" dir="s" state="M"/>
    <connection from="gneE7" to="gneE8" fromLane="1" toLane="1" via=":junce3_0_1" dir="s" state="M"/>
    <connection from="gneE7" to="gneE8" fromLane="2" toLane="2" via=":junce3_0_2" dir="s" state="M"/>
    <connection from="gneE8" to="gneE9" fromLane="0" toLane="0" via=":gneJ9_0_0" dir="r" state="M"/>
    <connection from="gneE8" to="gneE9" fromLane="1" toLane="1" via=":gneJ9_1_0" dir="r" state="M"/>
    <connection from="gneE8" to="gneE9" fromLane="2" toLane="2" via=":gneJ9_2_0" dir="r" state="M"/>
    <connection from="gneE9" to="gneE0" fromLane="0" toLane="0" via=":gneJ0_0_0" dir="s" state="M"/>
    <connection from="gneE9" to="gneE0" fromLane="1" toLane="1" via=":gneJ0_0_1" dir="s" state="M"/>
    <connection from="gneE9" to="gneE0" fromLane="2" toLane="2" via=":gneJ0_0_2" dir="s" state="M"/>

    <connection from=":gneJ0_0" to="gneE0" fromLane="0" toLane="0" dir="s" state="M"/>
    <connection from=":gneJ0_0" to="gneE0" fromLane="1" toLane="1" dir="s" state="M"/>
    <connection from=":gneJ0_0" to="gneE0" fromLane="2" toLane="2" dir="s" state="M"/>
    <connection from=":gneJ1_0" to="gneE1" fromLane="0" toLane="0" dir="s" state="M"/>
    <connection from=":gneJ1_0" to="gneE1" fromLane="1" toLane="1" dir="s" state="M"/>
    <connection from=":gneJ1_0" to="gneE1" fromLane="2" toLane="2" dir="s" state="M"/>
    <connection from=":gneJ3_0" to="edge2" fromLane="0" toLane="0" dir="s" state="M"/>
    <connection from=":gneJ3_0" to="edge2" fromLane="1" toLane="1" dir="s" state="M"/>
    <connection from=":gneJ3_0" to="edge2" fromLane="2" toLane="2" dir="s" state="M"/>
    <connection from=":gneJ4_0" to="edge3" fromLane="0" toLane="0" dir="r" state="M"/>
    <connection from=":gneJ4_1" to="edge3" fromLane="0" toLane="1" dir="r" state="M"/>
    <connection from=":gneJ4_2" to="edge3" fromLane="0" toLane="2" dir="r" state="M"/>
    <connection from=":gneJ40_0" to="gneE34" fromLane="0" toLane="0" dir="s" state="M"/>
    <connection from=":gneJ41_0" to="gneE35" fromLane="0" toLane="0" dir="r" state="M"/>
    <connection from=":gneJ42_0" to="gneE36" fromLane="0" toLane="0" dir="s" state="M"/>
    <connection from=":gneJ43_0" to="gneE37" fromLane="0" toLane="0" dir="s" state="M"/>
    <connection from=":gneJ44_0" to="edge5" fromLane="0" toLane="0" dir="s" state="M"/>
    <connection from=":gneJ45_0" to="gneE39" fromLane="0" toLane="0" dir="s" state="M"/>
    <connection from=":gneJ46_0" to="gneE40" fromLane="0" toLane="0" dir="r" state="M"/>
    <connection from=":gneJ47_0" to="gneE41" fromLane="0" toLane="0" dir="s" state="M"/>
    <connection from=":gneJ48_0" to="edge6" fromLane="0" toLane="0" dir="s" state="M"/>
    <connection from=":gneJ49_0" to="gneE43" fromLane="0" toLane="0" dir="s" state="M"/>
    <connection from=":gneJ5_0" to="gneE5" fromLane="0" toLane="0" dir="s" state="M"/>
    <connection from=":gneJ5_0" to="gneE5" fromLane="1" toLane="1" dir="s" state="M"/>
    <connection from=":gneJ5_0" to="gneE5" fromLane="2" toLane="2" dir="s" state="M"/>
    <connection from=":gneJ50_0" to="gneE44" fromLane="0" toLane="0" dir="s" state="M"/>
    <connection from=":gneJ51_0" to="gneE47" fromLane="0" toLane="0" dir="r" state="M"/>
    <connection from=":gneJ6_0" to="gneE6" fromLane="0" toLane="0" dir="s" state="M"/>