<?xml version="1.0" encoding="UTF-8"?>

<!-- generated on Tue Dec  3 19:12:51 2019 by Eclipse SUMO polyconvert Version 1.2.0
<configuration xmlns:xsi="http://www.w3.org/2001/XMLSchema-instance" xsi:noNamespaceSchemaLocation="http://sumo.dlr.de/xsd/polyconvertConfiguration.xsd">

    <input>
        <net-file value="map.net.xml"/>
        <osm-files value="map.osm"/>
        <type-file value="typemap.xml"/>
    </input>

    <output>
        <output-file value="map.poly.xml"/>
    </output>

    <processing>
        <poi-layer-offset value="5"/>
    </processing>

</configuration>
-->

<additional xmlns:xsi="http://www.w3.org/2001/XMLSchema-instance" xsi:noNamespaceSchemaLocation="http://sumo.dlr.de/xsd/additional_file.xsd">
    <location netOffset="-368813.66,-6281125.01" convBoundary="-0.00,-0.00,2545.20,2418.89" origBoundary="12.859777,56.656518,12.900730,56.677878" projParameter="+proj=utm +zone=33 +ellps=WGS84 +datum=WGS84 +units=m +no_defs"/>

    <poly id="169875784" type="building" color="255,230,230" fill="1" layer="-1.00" shape="311.775117,1521.727124 321.043533,1519.422245 315.060231,1495.482282 315.626217,1495.342122 314.294994,1490.014755 313.199784,1490.293930 310.355144,1478.909721 308.989116,1473.449775 309.853589,1473.244621 309.426106,1471.531445 310.272198,1471.326863 309.164763,1466.883619 308.519471,1467.037389 304.197561,1449.773435 293.894353,1452.333363 298.259653,1469.807592 298.560906,1471.012321 299.338430,1474.118063 300.044297,1473.940126 301.276935,1478.858430 301.942556,1481.522112 298.729402,1482.323972 300.243177,1488.391939 303.322576,1487.627663 305.214351,1495.198713 304.453693,1495.389495 305.014231,1497.633182 305.518472,1499.644710 306.205954,1499.467347 311.775117,1521.727124"/>
    <poly id="170974826" type="building" color="255,230,230" fill="1" layer="-1.00" shape="1673.698564,1284.711434 1680.043678,1289.205124 1685.682111,1282.314769 1695.684664,1270.366666 1689.520173,1265.366151 1673.698564,1284.711434"/>
    <poly id="170974827" type="building" color="255,230,230" fill="1" layer="-1.00" shape="1752.545596,1302.475310 1754.731057,1302.942618 1766.616883,1305.138259 1778.588122,1250.781110 1764.011702,1247.454227 1762.280542,1255.761198 1754.715018,1292.071928 1752.545596,1302.475310"/>
    <poly id="170974828" type="building" color="255,230,230" fill="1" layer="-1.00" shape="1767.876976,1228.789529 1780.300955,1231.525563 1776.005697,1250.170079 1764.011702,1247.454227 1767.876976,1228.789529"/>
    <poly id="170974829" type="building" color="255,230,230" fill="1" layer="-1.00" shape="1685.682111,1282.314769 1680.043678,1289.205124 1676.915979,1292.988402 1706.254650,1316.221127 1712.087625,1318.825962 1750.004510,1326.690759 1750.492765,1324.225242 1752.708649,1313.140977 1745.149743,1311.446935 1715.272856,1304.771228 1694.586876,1289.068659 1685.682111,1282.314769"/>
    <poly id="170974830" type="building" color="255,230,230" fill="1" layer="-1.00" shape="1743.621285,1226.418101 1742.760988,1230.543581 1751.694892,1232.072734 1752.264817,1227.878233 1743.621285,1226.418101"/>
    <poly id="170974831" type="building" color="255,230,230" fill="1" layer="-1.00" shape="1687.021473,1263.293447 1689.520173,1265.366151 1695.684664,1270.366666 1698.310217,1271.978785 1732.758036,1226.763997 1721.689240,1218.450495 1716.369273,1225.330980 1692.742210,1255.888194 1687.021473,1263.293447"/>
    <poly id="170974832" type="building" color="255,230,230" fill="1" layer="-1.00" shape="1764.324384,1327.073782 1769.089972,1305.585575 1766.616883,1305.138259 1754.731057,1302.942618 1752.708649,1313.140977 1750.492765,1324.225242 1764.324384,1327.073782"/>
    <poly id="171004771" type="building" color="255,230,230" fill="1" layer="-1.00" shape="1723.884546,1385.594184 1728.264701,1361.956924 1716.872602,1359.857564 1712.492507,1383.494837 1723.884546,1385.594184"/>
    <poly id="171004772" type="building" color="255,230,230" fill="1" layer="-1.00" shape="1707.645843,1336.483757 1699.534104,1380.519309 1705.615472,1381.635052 1713.727271,1337.599513 1707.645843,1336.483757"/>
    <poly id="171004773" type="building" color="255,230,230" fill="1" layer="-1.00" shape="1737.165998,1387.312317 1745.087736,1342.870584 1738.890254,1341.769498 1730.962451,1386.211432 1737.165998,1387.312317"/>
    <poly id="171004775" type="building" color="255,230,230" fill="1" layer="-1.00" shape="1687.998434,1333.179796 1680.351857,1377.178776 1685.795979,1378.113645 1693.442953,1334.125804 1687.998434,1333.179796"/>
    <poly id="171005878" type="building" color="255,230,230" fill="1" layer="-1.00" shape="1550.607865,1324.998156 1574.840961,1343.742788 1582.898443,1333.369253 1576.778900,1328.634838 1563.811174,1318.609314 1558.665329,1314.624574 1551.958427,1323.252281 1550.607865,1324.998156"/>
    <poly id="171005879" type="building" color="255,230,230" fill="1" layer="-1.00" shape="1559.855749,1233.755521 1558.280093,1242.915460 1564.149601,1243.915024 1565.719485,1234.766403 1559.855749,1233.755521"/>
    <poly id="171005880" type="building" color="255,230,230" fill="1" layer="-1.00" shape="1545.593172,1318.904202 1551.958427,1323.252281 1558.665329,1314.624574 1547.048356,1312.599436 1545.593172,1318.904202"/>
    <poly id="171005881" type="building" color="255,230,230" fill="1" layer="-1.00" shape="1633.599700,1281.681884 1630.000447,1286.281715 1593.861699,1332.496361 1590.162151,1337.221848 1600.511606,1345.278732 1643.943069,1289.739063 1633.599700,1281.681884"/>
    <poly id="171005882" type="building" color="255,230,230" fill="1" layer="-1.00" shape="1557.078418,1242.729772 1545.358880,1312.306282 1547.048356,1312.599436 1558.665329,1314.624574 1560.296959,1304.894840 1569.178166,1252.046925 1570.370075,1244.959458 1564.149601,1243.915024 1558.280093,1242.915460 1557.078418,1242.729772"/>
    <poly id="171005883" type="building" color="255,230,230" fill="1" layer="-1.00" shape="1609.013161,1241.539569 1601.028555,1251.699162 1606.251389,1255.792964 1632.201295,1276.111197 1637.034232,1279.894043 1645.018863,1269.734519 1609.013161,1241.539569"/>
    <poly id="171061021" type="building" color="255,230,230" fill="1" layer="-1.00" shape="1624.171723,1366.335847 1633.652568,1373.873810 1639.391825,1366.679534 1630.980767,1360.222415 1629.770447,1359.357524 1624.171723,1366.335847"/>
    <poly id="171061021#1" type="shop" color="237,199,255" fill="1" layer="-1.00" shape="1624.171723,1366.335847 1633.652568,1373.873810 1639.391825,1366.679534 1630.980767,1360.222415 1629.770447,1359.357524 1624.171723,1366.335847"/>
    <poly id="171061023" type="building" color="255,230,230" fill="1" layer="-1.00" shape="1664.487007,1336.232640 1665.807319,1334.498874 1651.099440,1323.323787 1636.887447,1341.951280 1643.169636,1346.792148 1653.931532,1354.903269 1666.823238,1338.009599 1664.487007,1336.232640"/>
    <poly id="171061023#1" type="shop" color="237,199,255" fill="1" layer="-1.00" shape="1664.487007,1336.232640 1665.807319,1334.498874 1651.099440,1323.323787 1636.887447,1341.951280 1643.169636,1346.792148 1653.931532,1354.903269 1666.823238,1338.009599 1664.487007,1336.232640"/>
    <poly id="171061024" type="building" color="255,230,230" fill="1" layer="-1.00" shape="1636.721625,1355.266929 1635.478267,1354.325086 1630.980767,1360.222415 1639.391825,1366.679534 1648.582804,1373.569297 1659.527991,1359.186103 1643.169636,1346.792148 1636.721625,1355.266929"/>
    <poly id="171101050" type="building" color="255,230,230" fill="1" layer="-1.00" shape="1659.596729,1312.090319 1656.595725,1316.003369 1660.766378,1319.194044 1663.767040,1315.269868 1659.596729,1312.090319"/>
    <poly id="171101052" type="parking" color="184,184,179" fill="1" layer="-1.00" shape="1690.080821,1313.990766 1671.356584,1304.231494 1673.093065,1301.872281 1660.993598,1293.546165 1647.679874,1309.884796 1656.595725,1316.003369 1660.766378,1319.194044 1663.655823,1321.210129 1674.341818,1326.461044 1676.720118,1323.436010 1684.516078,1325.657270 1687.588828,1318.500720 1690.080821,1313.990766"/>
    <poly id="171243660" type="building" color="255,230,230" fill="1" layer="-1.00" shape="1602.244220,1213.768398 1612.718197,1221.877173 1620.210118,1212.245175 1633.624264,1194.978874 1647.587432,1177.016242 1655.769650,1166.494224 1645.295631,1158.385341 1602.244220,1213.768398"/>
    <poly id="171243661" type="building" color="255,230,230" fill="1" layer="-1.00" shape="1577.165141,1128.263080 1564.774771,1197.392373 1567.137315,1197.831846 1570.585128,1198.460605 1578.274258,1199.793894 1580.356883,1188.178986 1584.333864,1166.002005 1588.325845,1143.713183 1590.664837,1130.664644 1577.165141,1128.263080"/>
    <poly id="171243662" type="building" color="255,230,230" fill="1" layer="-1.00" shape="1657.164428,1164.190098 1665.082680,1154.255443 1655.399962,1145.554072 1647.200054,1156.299405 1657.164428,1164.190098"/>
    <poly id="171243663" type="building" color="255,230,230" fill="1" layer="-1.00" shape="1609.477981,1223.603345 1600.832482,1216.117622 1592.711878,1227.038844 1602.370749,1233.178944 1609.477981,1223.603345"/>
    <poly id="171243664" type="building" color="255,230,230" fill="1" layer="-1.00" shape="1613.647959,1113.827104 1605.448085,1124.572518 1613.424139,1130.630898 1627.366687,1141.228007 1641.095689,1151.664668 1647.200054,1156.299405 1655.399962,1145.554072 1613.647959,1113.827104"/>
    <poly id="171243665" type="building" color="255,230,230" fill="1" layer="-1.00" shape="1565.959944,1204.595847 1576.499013,1212.624558 1578.329242,1209.527270 1569.864414,1203.328102 1570.585128,1198.460605 1567.137315,1197.831846 1565.959944,1204.595847"/>
    <poly id="171243666" type="building" color="255,230,230" fill="1" layer="-1.00" shape="1583.886708,1202.995708 1578.329242,1209.527270 1576.499013,1212.624558 1575.962878,1213.933169 1592.711878,1227.038844 1600.832482,1216.117622 1592.431960,1209.615686 1583.886708,1202.995708"/>
    <poly id="171530787" type="building" color="255,230,230" fill="1" layer="-1.00" shape="1684.008045,1152.413321 1675.618477,1163.175581 1730.045172,1205.004982 1770.570064,1212.288403 1773.862193,1195.323285 1767.279815,1194.078067 1766.670960,1197.805947 1765.517616,1197.596433 1752.915239,1195.244644 1738.425896,1192.561191 1735.563631,1192.025637 1727.460183,1185.803885 1715.932960,1176.947596 1703.903543,1167.917461 1693.129634,1159.427859 1684.008045,1152.413321"/>
    <poly id="171530788" type="building" color="255,230,230" fill="1" layer="-1.00" shape="1776.922492,1143.356997 1774.826912,1154.370702 1771.650082,1171.098356 1768.446074,1187.938236 1767.279815,1194.078067 1773.862193,1195.323285 1780.204232,1196.531363 1789.846712,1145.799197 1776.922492,1143.356997"/>
    <poly id="171530789" type="building" color="255,230,230" fill="1" layer="-1.00" shape="1697.242773,1115.582410 1694.559918,1128.429843 1706.788122,1130.971216 1720.769174,1133.870728 1735.016081,1136.840063 1749.503306,1139.846594 1763.422676,1142.737007 1768.033753,1143.697660 1770.710690,1130.850466 1697.242773,1115.582410"/>
    <poly id="172260040" type="parking" color="184,184,179" fill="1" layer="-1.00" shape="1244.591041,1234.952574 1260.540974,1255.700465 1294.761724,1228.867539 1281.916356,1213.113838 1278.135833,1213.230749 1275.444208,1209.092473 1244.591041,1234.952574"/>
    <poly id="172260041" type="building" color="255,230,230" fill="1" layer="-1.00" shape="1355.115766,1265.719368 1350.648820,1269.421769 1359.503336,1280.086160 1363.970277,1276.383769 1355.115766,1265.719368"/>
    <poly id="172260042" type="amenity" color="237,199,199" fill="1" layer="-1.00" shape="1299.698918,1202.884557 1295.068496,1207.449740 1298.479679,1211.454393 1293.344291,1215.556234 1297.432009,1220.018925 1292.931948,1223.443946 1296.187664,1227.776423 1299.411932,1225.538124 1302.478053,1228.896274 1299.434362,1231.619084 1303.867102,1236.728287 1296.969974,1242.366025 1298.007037,1243.971327 1293.336406,1247.234545 1288.722743,1241.629712 1270.236344,1255.667928 1277.420799,1264.479113 1297.657999,1248.749423 1302.096852,1253.858435 1311.882882,1245.847982 1314.283046,1248.892573 1311.389316,1251.109503 1315.136136,1255.259731 1310.811857,1259.013457 1319.692726,1269.732648 1311.354424,1276.562191 1319.044067,1285.847919 1338.589924,1268.981392 1342.698182,1274.111801 1350.541548,1267.141681 1345.261087,1261.390321 1348.139350,1258.672657 1299.698918,1202.884557"/>
    <poly id="172260042#1" type="building" color="255,230,230" fill="1" layer="-1.00" shape="1299.698918,1202.884557 1295.068496,1207.449740 1298.479679,1211.454393 1293.344291,1215.556234 1297.432009,1220.018925 1292.931948,1223.443946 1296.187664,1227.776423 1299.411932,1225.538124 1302.478053,1228.896274 1299.434362,1231.619084 1303.867102,1236.728287 1296.969974,1242.366025 1298.007037,1243.971327 1293.336406,1247.234545 1288.722743,1241.629712 1270.236344,1255.667928 1277.420799,1264.479113 1297.657999,1248.749423 1302.096852,1253.858435 1311.882882,1245.847982 1314.283046,1248.892573 1311.389316,1251.109503 1315.136136,1255.259731 1310.811857,1259.013457 1319.692726,1269.732648 1311.354424,1276.562191 1319.044067,1285.847919 1338.589924,1268.981392 1342.698182,1274.111801 1350.541548,1267.141681 1345.261087,1261.390321 1348.139350,1258.672657 1299.698918,1202.884557"/>
    <poly id="172417305" type="parking" color="184,184,179" fill="1" layer="-1.00" shape="1618.251899,1433.683758 1644.881274,1438.286885 1647.627709,1422.741914 1637.830840,1420.860903 1639.085730,1413.626714 1622.465435,1410.630701 1618.251899,1433.683758"/>
    <poly id="172417314" type="parking" color="184,184,179" fill="1" layer="-1.00" shape="1543.294609,1392.667685 1540.490062,1408.504134 1617.227314,1421.741447 1618.036634,1415.969002 1619.698912,1416.574900 1619.809043,1415.970023 1621.533450,1406.660717 1543.294609,1392.667685"/>
    <poly id="172421759" type="building" color="255,230,230" fill="1" layer="-1.00" shape="1650.846186,1434.037369 1697.379826,1442.137166 1699.850728,1427.993046 1702.212441,1428.410338 1703.162204,1423.012295 1654.266643,1414.495166 1650.846186,1434.037369"/>
    <poly id="172421760" type="building" color="255,230,230" fill="1" layer="-1.00" shape="1567.884607,1419.610347 1566.802445,1425.680826 1613.169631,1433.940778 1614.420457,1426.974029 1600.218436,1424.438158 1600.919979,1420.540307 1588.364469,1418.298975 1587.506939,1423.103862 1567.884607,1419.610347"/>
    <poly id="172421761" type="building" color="255,230,230" fill="1" layer="-1.00" shape="1638.768342,1474.920667 1636.740189,1489.095732 1703.215676,1500.345376 1704.018963,1494.573138 1701.350066,1493.341066 1702.928089,1486.241738 1638.768342,1474.920667"/>
    <poly id="172421762" type="building" color="255,230,230" fill="1" layer="-1.00" shape="1608.717405,1500.742216 1603.041372,1533.831680 1643.145319,1540.681193 1648.821652,1507.591787 1608.717405,1500.742216"/>
    <poly id="172421763" type="building" color="255,230,230" fill="1" layer="-1.00" shape="1539.035411,1457.146466 1536.141768,1475.458428 1632.229875,1492.186554 1633.294193,1483.944632 1631.947605,1483.830226 1634.301936,1474.067093 1539.035411,1457.146466"/>
    <poly id="172421764" type="building" color="255,230,230" fill="1" layer="-1.00" shape="1649.499054,1444.047892 1647.372413,1449.860954 1650.186533,1450.431342 1649.493516,1459.976152 1692.655867,1467.344464 1695.279081,1451.179573 1649.499054,1444.047892"/>
    <poly id="172421765" type="building" color="255,230,230" fill="1" layer="-1.00" shape="1571.756856,1446.123090 1638.402484,1457.689513 1639.608090,1449.454376 1641.231773,1449.604793 1642.859318,1442.125202 1601.872112,1435.102407 1601.227908,1438.274485 1573.767323,1433.964606 1571.756856,1446.123090"/>
    <poly id="172421766" type="amenity" color="237,199,199" fill="1" layer="-1.00" shape="1532.801383,1389.093071 1762.307863,1426.435723 1761.507979,1431.127405 1753.774362,1476.298459 1731.764399,1604.846908 1502.912091,1565.949011 1532.801383,1389.093071"/>
    <poly id="172421767" type="building" color="255,230,230" fill="1" layer="-1.00" shape="1698.985632,1457.224909 1697.093442,1468.655668 1719.579800,1472.362233 1721.472049,1460.931485 1698.985632,1457.224909"/>
    <poly id="172422905" type="building" color="255,230,230" fill="1" layer="-1.00" shape="1513.113106,1521.336085 1519.768550,1482.646965 1527.302299,1483.929244 1520.647133,1522.629479 1513.113106,1521.336085"/>
    <poly id="172422907" type="building" color="255,230,230" fill="1" layer="-1.00" shape="1715.669398,1521.180361 1718.967477,1521.735874 1713.196312,1556.142431 1709.898601,1555.598050 1715.669398,1521.180361"/>
    <poly id="180019652" type="tourism" color="207,245,201" fill="1" layer="-2.00" shape="1701.197239,1217.210828 1700.549320,1212.307577 1674.571307,1191.276924 1668.172112,1191.797236 1639.346213,1227.984064 1640.489529,1233.039109 1667.124069,1253.882229 1672.696979,1253.220309 1701.197239,1217.210828"/>
    <poly id="180020585" type="parking" color="184,184,179" fill="1" layer="-1.00" shape="1717.105685,975.393555 1698.905300,1036.202691 1714.664652,1040.473113 1731.770350,986.926676 1727.107836,985.098837 1722.403292,976.533502 1717.105685,975.393555"/>
    <poly id="180020590" type="tourism" color="207,245,201" fill="1" layer="-2.00" shape="1725.347326,906.671182 1700.320796,943.230483 1711.154450,953.244258 1714.679858,950.016827 1743.320358,923.849871 1725.347326,906.671182"/>
    <poly id="180021248" type="leisure" color="207,245,201" fill="1" layer="-2.00" shape="1631.579274,1097.446231 1634.032180,1103.797510 1635.509872,1104.977177 1654.459799,1119.240469 1665.467928,1107.272444 1667.829787,1104.704597 1663.596834,1100.892072 1661.421717,1094.398550 1657.014338,1090.101313 1648.945141,1084.602648 1645.021663,1083.865966 1636.205830,1082.199721 1631.579274,1097.446231"/>
    <poly id="184497382" type="industrial" color="209,209,204" fill="0" layer="-3.00" shape="1270.680357,1000.904151 1536.635991,768.502917 1551.557235,755.511655 1564.761394,743.921186 1901.285106,449.922108 1944.038571,412.573910 1951.282052,406.158132 1965.391606,394.017669"/>
    <poly id="195286291" type="parking" color="184,184,179" fill="1" layer="-1.00" shape="1551.058796,1705.621452 1556.608180,1672.624897 1612.980180,1682.057383 1607.430376,1715.053859 1551.058796,1705.621452"/>
    <poly id="195286293" type="building" color="255,230,230" fill="1" layer="-1.00" shape="1553.386709,1669.382763 1555.595202,1656.494141 1558.899985,1637.200443 1562.796783,1614.435533 1565.644572,1597.818058 1578.338080,1599.977073 1566.086482,1671.552676 1553.386709,1669.382763"/>
    <poly id="195286295" type="building" color="255,230,230" fill="1" layer="-1.00" shape="1614.521301,1698.617392 1616.694967,1685.986070 1628.544034,1688.015334 1647.236131,1691.214750 1659.719976,1693.347047 1657.546187,1705.978344 1614.521301,1698.617392"/>
    <poly id="195286296" type="parking" color="184,184,179" fill="1" layer="-1.00" shape="1613.289774,1729.264074 1617.726460,1703.519715 1653.600240,1709.664368 1649.163346,1735.408687 1613.289774,1729.264074"/>
    <poly id="195286298" type="parking" color="184,184,179" fill="1" layer="-1.00" shape="1488.099469,1698.531816 1482.089997,1697.547846 1488.229217,1660.433978 1499.539921,1662.301293 1493.400262,1699.404015 1488.099469,1698.531816"/>
    <poly id="195286300" type="building" color="255,230,230" fill="1" layer="-1.00" shape="1535.669879,1592.093495 1537.784982,1579.954030 1553.729324,1582.725497 1551.614177,1594.864953 1535.669879,1592.093495"/>
    <poly id="195286304" type="building" color="255,230,230" fill="1" layer="-1.00" shape="1751.066947,1629.837196 1753.104662,1617.555449 1769.229399,1620.221914 1767.191640,1632.503653 1751.066947,1629.837196"/>
    <poly id="195286306" type="building" color="255,230,230" fill="1" layer="-1.00" shape="1644.201273,1610.709961 1646.254771,1598.750680 1661.889530,1601.431852 1659.835646,1613.379996 1644.201273,1610.709961"/>
    <poly id="195286308" type="building" color="255,230,230" fill="1" layer="-1.00" shape="1770.168292,1709.802331 1777.036107,1710.983032 1771.239473,1744.566046 1764.377836,1743.385166 1770.168292,1709.802331"/>
    <poly id="195286312" type="parking" color="184,184,179" fill="1" layer="-1.00" shape="1659.245605,1724.694355 1664.922686,1691.437853 1721.132143,1700.988165 1715.454640,1734.244585 1659.245605,1724.694355"/>
    <poly id="195286314" type="building" color="255,230,230" fill="1" layer="-1.00" shape="1713.171475,1697.379630 1725.419261,1626.996497 1738.570066,1629.275554 1735.959851,1644.270476 1731.968939,1667.194027 1728.582776,1686.657143 1726.322071,1699.658646 1713.171475,1697.379630"/>
    <poly id="195286315" type="building" color="255,230,230" fill="1" layer="-1.00" shape="1496.254842,1659.384182 1508.664035,1588.182171 1521.654782,1590.432086 1518.664354,1607.588651 1514.777517,1629.874347 1511.600268,1648.128266 1509.245380,1661.634056 1496.254842,1659.384182"/>
    <poly id="195286316" type="building" color="255,230,230" fill="1" layer="-1.00" shape="1604.836555,1678.287613 1617.022176,1607.137450 1630.134983,1609.372791 1627.417121,1625.239922 1623.509110,1648.049658 1620.157489,1667.623201 1617.949151,1680.522914 1604.836555,1678.287613"/>
    <poly id="195286321" type="building" color="255,230,230" fill="1" layer="-1.00" shape="1506.474261,1679.931136 1508.746846,1666.739763 1517.951232,1668.315726 1539.152845,1671.949566 1551.581675,1674.083245 1549.315089,1687.274404 1506.474261,1679.931136"/>
    <poly id="195286323" type="building" color="255,230,230" fill="1" layer="-1.00" shape="1768.660756,1708.044343 1770.826050,1695.524764 1774.328621,1675.256131 1778.268383,1652.456729 1780.980016,1636.768127 1793.723310,1638.959663 1781.403845,1710.235839 1768.660756,1708.044343"/>
    <poly id="195286325" type="parking" color="184,184,179" fill="1" layer="-1.00" shape="1506.878031,1710.883825 1511.336945,1685.283441 1544.802535,1691.078268 1540.343428,1716.678614 1506.878031,1710.883825"/>
    <poly id="195286328" type="parking" color="184,184,179" fill="1" layer="-1.00" shape="1722.094110,1748.508858 1726.639741,1723.095439 1760.455291,1729.126215 1755.909466,1754.539596 1722.094110,1748.508858"/>
    <poly id="195286330" type="building" color="255,230,230" fill="1" layer="-1.00" shape="1723.938129,1718.210933 1726.400302,1705.180940 1738.563807,1707.468142 1756.882727,1710.902309 1765.123322,1712.452812 1762.667162,1725.482592 1723.938129,1718.210933"/>
    <poly id="195286332" type="building" color="255,230,230" fill="1" layer="-1.00" shape="1661.821303,1688.904803 1664.202483,1675.242368 1667.547930,1656.058908 1671.622123,1632.664895 1674.316079,1617.210662 1687.232764,1619.452226 1674.731652,1691.146515 1661.821303,1688.904803"/>
    <poly id="195286334" type="building" color="255,230,230" fill="1" layer="-1.00" shape="1494.061219,1695.785855 1499.876715,1662.881236 1506.585065,1664.055288 1500.769863,1696.971025 1494.061219,1695.785855"/>
    <poly id="195636050" type="parking" color="184,184,179" fill="1" layer="-1.00" shape="1711.871727,1745.927960 1693.222131,1742.704682 1694.961655,1732.693209 1713.611294,1735.916495 1711.871727,1745.927960"/>
    <poly id="195636052" type="parking" color="184,184,179" fill="1" layer="-1.00" shape="1550.879319,1718.681361 1552.703440,1708.043446 1575.852477,1711.996065 1574.034428,1722.633781 1550.879319,1718.681361"/>
    <poly id="195636055" type="parking" color="184,184,179" fill="1" layer="-1.00" shape="1657.079924,1736.991248 1658.914645,1726.887713 1683.692567,1731.369886 1681.857790,1741.473410 1657.079924,1736.991248"/>
    <poly id="195636057" type="parking" color="184,184,179" fill="1" layer="-1.00" shape="1604.825553,1727.821014 1585.471515,1724.430586 1587.319248,1713.959039 1606.673332,1717.349476 1604.825553,1727.821014"/>
    <poly id="195636774" type="parking" color="184,184,179" fill="1" layer="-1.00" shape="1772.649935,1744.567139 1778.383691,1711.331359 1788.642346,1713.098192 1782.908513,1746.333957 1772.649935,1744.567139"/>
    <poly id="195796349" type="parking" color="184,184,179" fill="1" layer="-1.00" shape="1665.890118,1287.458354 1676.972931,1294.835640 1673.093065,1301.872281 1660.993598,1293.546165 1665.890118,1287.458354"/>
    <poly id="195796350" type="parking" color="184,184,179" fill="1" layer="-1.00" shape="1753.224812,1226.590002 1736.909268,1223.751197 1737.696287,1219.238125 1754.018317,1222.087873 1753.224812,1226.590002"/>
    <poly id="195796351" type="parking" color="184,184,179" fill="1" layer="-1.00" shape="1751.535807,1233.080102 1749.940462,1242.808622 1754.982695,1243.633448 1756.584179,1233.904740 1751.535807,1233.080102"/>
    <poly id="196657877" type="parking" color="184,184,179" fill="1" layer="-1.00" shape="1639.484220,1232.657987 1636.651060,1236.844336 1665.118510,1258.455167 1667.806490,1254.930486 1639.484220,1232.657987"/>
    <poly id="196657881" type="parking" color="184,184,179" fill="1" layer="-1.00" shape="1650.128371,1263.194582 1637.942324,1279.509605 1649.575529,1287.827760 1661.910213,1272.354715 1650.128371,1263.194582"/>
    <poly id="196657889" type="parking" color="184,184,179" fill="1" layer="-1.00" shape="1675.731985,1186.551825 1704.034451,1208.179148 1701.035774,1212.370552 1673.219680,1190.405237 1675.731985,1186.551825"/>
    <poly id="196657891" type="parking" color="184,184,179" fill="1" layer="-1.00" shape="1622.212146,1227.443202 1617.153066,1223.489128 1658.457141,1170.510332 1663.855741,1174.932943 1622.212146,1227.443202"/>
    <poly id="196657896" type="parking" color="184,184,179" fill="1" layer="-1.00" shape="1705.074230,1220.622233 1677.235700,1256.611286 1673.359156,1253.612019 1701.333800,1217.462805 1705.074230,1220.622233"/>
    <poly id="196657899" type="parking" color="184,184,179" fill="1" layer="-1.00" shape="1577.261189,1252.632911 1578.687398,1247.175582 1573.412369,1245.366821 1574.631806,1236.785944 1588.713456,1239.971504 1597.855780,1237.717942 1606.259466,1243.529199 1600.418186,1251.595467 1596.174336,1257.963961 1577.261189,1252.632911"/>
    <poly id="196657904" type="parking" color="184,184,179" fill="1" layer="-1.00" shape="1639.006470,1227.905434 1634.949336,1224.421674 1663.268965,1187.927408 1667.656980,1191.400993 1639.006470,1227.905434"/>
    <poly id="197356368" type="building" color="255,230,230" fill="1" layer="-1.00" shape="1796.465369,1744.290063 1816.194190,1747.714460 1821.287228,1718.552906 1801.558277,1715.128484 1796.465369,1744.290063"/>
    <poly id="198361650" type="building" color="255,230,230" fill="1" layer="-1.00" shape="1621.653760,926.753807 1623.673456,914.082719 1672.458901,921.823442 1670.439065,934.494505 1662.740669,933.272698 1646.708937,930.726181 1630.615563,928.170487 1621.653760,926.753807"/>
    <poly id="198361656" type="building" color="255,230,230" fill="1" layer="-1.00" shape="1721.487954,1040.173722 1723.092017,1028.139255 1755.155250,1033.054686 1754.605889,1036.524548 1787.170481,1041.591850 1784.925684,1054.136115 1777.168971,1052.804521 1761.082243,1050.047654 1752.511541,1048.574105 1753.010252,1045.451097 1745.988169,1044.275142 1730.704818,1041.716405 1721.487954,1040.173722"/>
    <poly id="198361658" type="building" color="255,230,230" fill="1" layer="-1.00" shape="1784.945946,1038.864607 1790.025271,1006.038937 1787.370199,1005.463545 1792.629002,967.709138 1791.099849,966.252539 1779.826095,955.483567 1772.628708,948.621188 1782.190221,938.647306 1807.609431,962.814646 1805.345802,978.734438 1802.784071,996.724036 1801.386615,1006.513260 1804.191062,1006.761044 1802.989536,1014.149456 1800.456615,1029.687701 1798.656730,1040.747972 1784.945946,1038.864607"/>
    <poly id="198361659" type="building" color="255,230,230" fill="1" layer="-1.00" shape="1612.735801,1007.894493 1614.077732,999.699708 1616.307843,986.097626 1617.169843,980.835936 1622.286930,981.491231 1623.754483,973.192329 1626.109993,959.875989 1627.191038,953.761020 1615.458464,951.995402 1610.549282,979.558709 1605.420914,978.736699 1601.003026,1006.117790 1612.735801,1007.894493"/>
    <poly id="198361661" type="building" color="255,230,230" fill="1" layer="-1.00" shape="1617.613098,909.892185 1622.171296,881.682548 1627.134327,882.509682 1631.547427,854.961707 1644.116479,857.191683 1643.011744,864.131625 1640.839004,877.809884 1639.708791,884.917691 1634.425799,884.256348 1633.359768,890.660451 1631.006779,904.856648 1629.847621,911.820551 1617.613098,909.892185"/>
    <poly id="198361663" type="building" color="255,230,230" fill="1" layer="-1.00" shape="1608.259568,1022.646296 1610.188080,1010.601765 1642.918537,1015.662851 1642.369265,1019.132728 1673.947630,1024.229577 1673.921795,1024.386313 1673.060080,1029.659118 1671.867616,1036.935914 1663.493615,1035.478757 1647.879577,1032.741158 1639.123249,1031.217868 1639.681488,1028.237808 1632.539825,1026.965481 1617.041811,1024.213277 1608.259568,1022.646296"/>
    <poly id="198361665" type="building" color="255,230,230" fill="1" layer="-1.00" shape="1678.530789,1028.855570 1673.060080,1029.659118 1673.921795,1024.386313 1679.770064,1023.693650 1678.530789,1028.855570"/>
    <poly id="198361667" type="building" color="255,230,230" fill="1" layer="-1.00" shape="1639.795505,839.592406 1648.386908,844.506907 1655.866958,848.787378 1663.266931,854.251013 1677.972844,865.114387 1692.132532,875.571382 1698.126527,879.997976 1707.157008,868.714808 1663.561008,836.732209 1646.501969,827.734734 1639.795505,839.592406"/>
    <poly id="198361670" type="building" color="255,230,230" fill="1" layer="-1.00" shape="1674.521825,921.492522 1701.971092,881.750751 1712.411052,888.936351 1708.048489,895.252670 1698.900730,908.499830 1689.881666,921.542553 1684.961398,928.666925 1674.521825,921.492522"/>