<?xml version="1.0" encoding="UTF-8"?>

<!-- generated on Sun 12 Jan 2020 03:37:14 AM UTC by Eclipse SUMO netedit Version 1.2.0
<configuration xmlns:xsi="http://www.w3.org/2001/XMLSchema-instance" xsi:noNamespaceSchemaLocation="http://sumo.dlr.de/xsd/netconvertConfiguration.xsd">

    <input>
        <sumo-net-file value="/home/veins/src/veins/examples/veins/map.net.xml"/>
    </input>

    <output>
        <output-file value="/home/veins/src/veins/examples/veins/map.net.xml"/>
        <output.street-names value="true"/>
    </output>

    <processing>
        <geometry.max-grade.fix value="false"/>
        <offset.disable-normalization value="true"/>
        <lefthand value="false"/>
    </processing>

    <junctions>
        <no-turnarounds value="true"/>
        <junctions.corner-detail value="5"/>
        <junctions.limit-turn-speed value="5.5"/>
        <rectangular-lane-cut value="false"/>
    </junctions>

    <pedestrian>
        <walkingareas value="false"/>
    </pedestrian>

</configuration>
-->

<net version="1.1" junctionCornerDetail="5" limitTurnSpeed="5.50" xmlns:xsi="http://www.w3.org/2001/XMLSchema-instance" xsi:noNamespaceSchemaLocation="http://sumo.dlr.de/xsd/net_file.xsd">

    <location netOffset="-368813.66,-6281125.01" convBoundary="0.00,0.00,2422.01,2135.93" origBoundary="12.859777,56.656518,12.899460,56.675181" projParameter="+proj=utm +zone=33 +ellps=WGS84 +datum=WGS84 +units=m +no_defs"/>

    <type id="highway.bridleway" priority="1" numLanes="1" speed="2.78" allow="pedestrian" oneway="1" width="2.00"/>
    <type id="highway.bus_guideway" priority="1" numLanes="1" speed="27.78" allow="bus" oneway="1"/>
    <type id="highway.cycleway" priority="1" numLanes="1" speed="8.33" allow="bicycle" oneway="0" width="1.00"/>
    <type id="highway.footway" priority="1" numLanes="1" speed="2.78" allow="pedestrian" oneway="1" width="2.00"/>
    <type id="highway.ford" priority="1" numLanes="1" speed="2.78" allow="army" oneway="0"/>
    <type id="highway.living_street" priority="2" numLanes="1" speed="2.78" disallow="tram rail_urban rail rail_electric ship" oneway="0"/>
    <type id="highway.motorway" priority="14" numLanes="2" speed="39.44" allow="private emergency authority army vip passenger hov taxi bus coach delivery truck trailer motorcycle evehicle custom1 custom2" oneway="1"/>
    <type id="highway.motorway_link" priority="9" numLanes="1" speed="22.22" allow="private emergency authority army vip passenger hov taxi bus coach delivery truck trailer motorcycle evehicle custom1 custom2" oneway="1"/>
    <type id="highway.path" priority="1" numLanes="1" speed="2.78" allow="bicycle pedestrian" oneway="1" width="2.00"/>
    <type id="highway.pedestrian" priority="1" numLanes="1" speed="2.78" allow="pedestrian" oneway="1" width="2.00"/>
    <type id="highway.primary" priority="12" numLanes="2" speed="27.78" disallow="tram rail_urban rail rail_electric ship" oneway="0"/>
    <type id="highway.primary_link" priority="7" numLanes="1" speed="22.22" disallow="tram rail_urban rail rail_electric ship" oneway="0"/>
    <type id="highway.raceway" priority="15" numLanes="2" speed="83.33" allow="vip" oneway="0"/>
    <type id="highway.residential" priority="3" numLanes="1" speed="13.89" disallow="tram rail_urban rail rail_electric ship" oneway="0"/>
    <type id="highway.secondary" priority="11" numLanes="2" speed="27.78" disallow="tram rail_urban rail rail_electric ship" oneway="0"/>
    <type id="highway.secondary_link" priority="6" numLanes="1" speed="22.22" disallow="tram rail_urban rail rail_electric ship" oneway="0"/>
    <type id="highway.service" priority="1" numLanes="1" speed="5.56" allow="delivery bicycle pedestrian" oneway="0"/>
    <type id="highway.stairs" priority="1" numLanes="1" speed="1.39" allow="pedestrian" oneway="1" width="2.00"/>
    <type id="highway.step" priority="1" numLanes="1" speed="1.39" allow="pedestrian" oneway="1" width="2.00"/>
    <type id="highway.steps" priority="1" numLanes="1" speed="1.39" allow="pedestrian" oneway="1" width="2.00"/>
    <type id="highway.tertiary" priority="10" numLanes="1" speed="22.22" disallow="tram rail_urban rail rail_electric ship" oneway="0"/>
    <type id="highway.tertiary_link" priority="5" numLanes="1" speed="22.22" disallow="tram rail_urban rail rail_electric ship" oneway="0"/>
    <type id="highway.track" priority="1" numLanes="1" speed="5.56" disallow="tram rail_urban rail rail_electric ship" oneway="0"/>
    <type id="highway.trunk" priority="13" numLanes="2" speed="27.78" disallow="tram rail_urban rail rail_electric bicycle pedestrian ship" oneway="0"/>
    <type id="highway.trunk_link" priority="8" numLanes="1" speed="22.22" disallow="tram rail_urban rail rail_electric bicycle pedestrian ship" oneway="0"/>
    <type id="highway.unclassified" priority="4" numLanes="1" speed="13.89" disallow="tram rail_urban rail rail_electric ship" oneway="0"/>
    <type id="highway.unsurfaced" priority="1" numLanes="1" speed="8.33" disallow="tram rail_urban rail rail_electric ship" oneway="0"/>
    <type id="railway.light_rail" priority="19" numLanes="1" speed="27.78" allow="rail_urban" oneway="1"/>
    <type id="railway.preserved" priority="16" numLanes="1" speed="27.78" allow="rail" oneway="1"/>
    <type id="railway.rail" priority="20" numLanes="1" speed="83.33" allow="rail rail_electric" oneway="1"/>
    <type id="railway.subway" priority="18" numLanes="1" speed="27.78" allow="rail_urban" oneway="1"/>
    <type id="railway.tram" priority="17" numLanes="1" speed="13.89" allow="tram" oneway="1"/>

    <edge id=":1048746910_0" function="internal">
        <lane id=":1048746910_0_0" index="0" disallow="tram rail_urban rail rail_electric ship" speed="5.09" length="5.21" shape="1601.51,1371.41 1599.93,1371.33 1598.71,1371.66 1597.85,1372.39 1597.36,1373.53"/>
    </edge>
    <edge id=":1048746910_1" function="internal">
        <lane id=":1048746910_1_0" index="0" allow="bicycle pedestrian" speed="2.78" length="9.93" width="2.00" shape="1601.51,1371.41 1591.73,1369.73"/>
    </edge>
    <edge id=":1048746910_2" function="internal">
        <lane id=":1048746910_2_0" index="0" disallow="tram rail_urban rail rail_electric ship" speed="5.53" length="8.20" shape="1601.51,1371.41 1598.66,1370.71 1596.89,1369.69 1596.19,1368.35 1596.58,1366.68"/>
    </edge>
    <edge id=":1048746910_3" function="internal">
        <lane id=":1048746910_3_0" index="0" disallow="tram rail_urban rail rail_electric ship" speed="8.33" length="5.81" shape="1599.44,1368.12 1598.65,1369.66 1598.15,1370.74 1597.77,1371.85 1597.36,1373.53"/>
    </edge>
    <edge id=":1048746910_4" function="internal">
        <lane id=":1048746910_4_0" index="0" allow="bicycle pedestrian" speed="5.55" length="3.27" width="2.00" shape="1599.44,1368.12 1598.43,1369.27 1596.80,1369.92"/>
    </edge>
    <edge id=":1048746910_5" function="internal">
        <lane id=":1048746910_5_0" index="0" disallow="tram rail_urban rail rail_electric ship" speed="3.65" length="2.34" shape="1599.44,1368.12 1598.18,1368.83 1597.29,1368.83"/>
    </edge>
    <edge id=":1048746910_9" function="internal">
        <lane id=":1048746910_9_0" index="0" allow="bicycle pedestrian" speed="5.55" length="5.11" width="2.00" shape="1596.80,1369.92 1594.57,1370.07 1591.73,1369.73"/>
    </edge>
    <edge id=":1048746910_10" function="internal">
        <lane id=":1048746910_10_0" index="0" disallow="tram rail_urban rail rail_electric ship" speed="3.65" length="2.34" shape="1597.29,1368.83 1596.75,1368.11 1596.58,1366.68"/>
    </edge>
    <edge id=":1048746910_6" function="internal">
        <lane id=":1048746910_6_0" index="0" allow="bicycle pedestrian" speed="4.79" length="4.56" width="2.00" shape="1594.24,1372.81 1594.30,1371.68 1593.90,1370.79 1593.04,1370.14 1591.73,1369.73"/>
    </edge>
    <edge id=":1048746910_7" function="internal">
        <lane id=":1048746910_7_0" index="0" disallow="tram rail_urban rail rail_electric ship" speed="8.33" length="6.59" shape="1594.24,1372.81 1594.71,1370.92 1595.13,1369.64 1595.69,1368.42 1596.58,1366.68"/>
    </edge>
    <edge id=":1048746910_8" function="internal">
        <lane id=":1048746910_8_0" index="0" disallow="tram rail_urban rail rail_electric ship" speed="3.65" length="2.34" shape="1594.24,1372.81 1595.29,1371.82 1596.16,1371.61"/>
    </edge>
    <edge id=":1048746910_11" function="internal">
        <lane id=":1048746910_11_0" index="0" disallow="tram rail_urban rail rail_electric ship" speed="3.65" length="2.34" shape="1596.16,1371.61 1596.85,1372.18 1597.36,1373.53"/>
    </edge>
    <edge id=":1109392906_0" function="internal">
        <lane id=":1109392906_0_0" index="0" allow="bicycle pedestrian" speed="2.78" length="4.91" width="2.00" shape="254.90,1472.89 254.37,1471.53 254.04,1470.59 253.77,1469.63 253.39,1468.22"/>
    </edge>
    <edge id=":1109393118_0" function="internal">
        <lane id=":1109393118_0_0" index="0" allow="bicycle pedestrian" speed="2.78" length="5.02" width="2.00" shape="252.89,1466.34 251.65,1461.48"/>
    </edge>
    <edge id=":1109393118_1" function="internal">
        <lane id=":1109393118_1_0" index="0" allow="bicycle pedestrian" speed="2.78" length="3.45" width="2.00" shape="252.89,1466.34 252.72,1465.24 252.83,1464.40 253.25,1463.83 253.96,1463.52"/>
    </edge>
    <edge id=":1109393129_0" function="internal">
        <lane id=":1109393129_0_0" index="0" disallow="tram rail_urban rail rail_electric ship" speed="8.33" length="5.15" shape="257.10,1465.51 255.83,1460.51"/>
    </edge>
    <edge id=":1109393129_1" function="internal">
        <lane id=":1109393129_1_0" index="0" allow="bicycle pedestrian" speed="5.55" length="2.58" width="2.00" shape="257.10,1465.51 257.21,1464.35 258.16,1463.30"/>
    </edge>
    <edge id=":1109393129_2" function="internal">
        <lane id=":1109393129_2_0" index="0" disallow="tram rail_urban rail rail_electric ship" speed="3.65" length="2.34" shape="257.10,1465.51 257.57,1464.15 258.25,1463.56"/>
    </edge>
    <edge id=":1109393129_9" function="internal">
        <lane id=":1109393129_9_0" index="0" allow="bicycle pedestrian" speed="5.55" length="4.79" width="2.00" shape="258.16,1463.30 259.95,1462.36 262.59,1461.53"/>
    </edge>
    <edge id=":1109393129_10" function="internal">
        <lane id=":1109393129_10_0" index="0" disallow="tram rail_urban rail rail_electric ship" speed="3.65" length="2.34" shape="258.25,1463.56 259.13,1463.75 260.20,1464.72"/>
    </edge>
    <edge id=":1109393129_3" function="internal">
        <lane id=":1109393129_3_0" index="0" allow="bicycle pedestrian" speed="4.89" length="4.64" width="2.00" shape="258.93,1459.72 259.40,1460.80 260.17,1461.46 261.23,1461.70 262.59,1461.53"/>
    </edge>
    <edge id=":1109393129_4" function="internal">
        <lane id=":1109393129_4_0" index="0" disallow="tram rail_urban rail rail_electric ship" speed="8.33" length="5.15" shape="258.93,1459.72 260.20,1464.72"/>
    </edge>
    <edge id=":1109393129_5" function="internal">
        <lane id=":1109393129_5_0" index="0" disallow="tram rail_urban rail rail_electric ship" speed="3.65" length="2.34" shape="258.93,1459.72 258.45,1461.08 257.77,1461.67"/>
    </edge>
    <edge id=":1109393129_11" function="internal">
        <lane id=":1109393129_11_0" index="0" disallow="tram rail_urban rail rail_electric ship" speed="3.65" length="2.34" shape="257.77,1461.67 256.90,1461.48 255.83,1460.51"/>
    </edge>
    <edge id=":1109393129_6" function="internal">
        <lane id=":1109393129_6_0" index="0" disallow="tram rail_urban rail rail_electric ship" speed="4.32" length="3.92" shape="254.16,1463.48 255.13,1463.12 255.73,1462.50 255.96,1461.63 255.83,1460.51"/>
    </edge>
    <edge id=":1109393129_7" function="internal">
        <lane id=":1109393129_7_0" index="0" allow="bicycle pedestrian" speed="2.78" length="8.65" width="2.00" shape="254.16,1463.48 262.59,1461.53"/>
    </edge>
    <edge id=":1109393129_8" function="internal">
        <lane id=":1109393129_8_0" index="0" disallow="tram rail_urban rail rail_electric ship" speed="5.55" length="6.70" shape="254.16,1463.48 256.58,1463.14 258.39,1463.23 259.60,1463.76 260.20,1464.72"/>
    </edge>
    <edge id=":1109638669_0" function="internal">
        <lane id=":1109638669_0_0" index="0" disallow="tram rail_urban rail rail_electric ship" speed="8.33" length="0.31" shape="485.63,1634.18 485.39,1633.98"/>
    </edge>
    <edge id=":1109638669_1" function="internal">
        <lane id=":1109638669_1_0" index="0" disallow="tram rail_urban rail rail_electric ship" speed="8.33" length="0.26" shape="487.53,1631.59 487.73,1631.77"/>
    </edge>
    <edge id=":1111343358_0" function="internal">
        <lane id=":1111343358_0_0" index="0" allow="bicycle pedestrian" speed="2.78" length="4.59" width="2.00" shape="1182.71,1062.77 1183.76,1061.90 1184.43,1061.24 1184.96,1060.47 1185.58,1059.26"/>
    </edge>
    <edge id=":1111343358_1" function="internal">
        <lane id=":1111343358_1_0" index="0" allow="bicycle pedestrian" speed="2.78" length="4.02" width="2.00" shape="1182.71,1062.77 1183.65,1062.20 1184.55,1062.07 1185.41,1062.36 1186.24,1063.09"/>
    </edge>
    <edge id=":1111343374_0" function="internal">
        <lane id=":1111343374_0_0" index="0" allow="bicycle pedestrian" speed="2.78" length="4.05" width="2.00" shape="266.43,1457.93 266.83,1458.98 267.46,1459.63 268.33,1459.90 269.44,1459.77"/>
    </edge>
    <edge id=":1111343374_1" function="internal">
        <lane id=":1111343374_1_0" index="0" allow="bicycle pedestrian" speed="2.78" length="5.07" width="2.00" shape="266.43,1457.93 267.53,1462.88"/>
    </edge>
    <edge id=":1111343374_2" function="internal">
        <lane id=":1111343374_2_0" index="0" allow="bicycle pedestrian" speed="2.78" length="5.07" width="2.00" shape="264.53,1461.04 269.44,1459.77"/>
    </edge>
    <edge id=":1111343374_3" function="internal">
        <lane id=":1111343374_3_0" index="0" allow="bicycle pedestrian" speed="2.78" length="4.05" width="2.00" shape="264.53,1461.04 265.63,1460.92 266.50,1461.18 267.13,1461.84 267.53,1462.88"/>
    </edge>
    <edge id=":1111343376_0" function="internal">
        <lane id=":1111343376_0_0" index="0" allow="bicycle pedestrian" speed="2.78" length="9.46" width="2.00" shape="892.43,1336.48 886.74,1328.93"/>
    </edge>
    <edge id=":1111343376_1" function="internal">
        <lane id=":1111343376_1_0" index="0" disallow="tram rail_urban rail rail_electric bicycle pedestrian ship" speed="11.11" length="5.13" shape="886.55,1333.08 890.59,1329.91"/>
        <lane id=":1111343376_1_1" index="1" disallow="tram rail_urban rail rail_electric bicycle pedestrian ship" speed="11.11" length="5.13" shape="888.53,1335.59 892.56,1332.42"/>
    </edge>
    <edge id=":1111343382_0" function="internal">
        <lane id=":1111343382_0_0" index="0" allow="bicycle pedestrian" speed="2.78" length="5.40" width="2.00" shape="286.53,1453.95 284.47,1458.93"/>
    </edge>
    <edge id=":1111343382_1" function="internal">
        <lane id=":1111343382_1_0" index="0" allow="bicycle pedestrian" speed="2.78" length="4.48" width="2.00" shape="282.45,1456.47 283.82,1456.38 284.61,1456.77 284.82,1457.62 284.47,1458.93"/>
    </edge>
    <edge id=":1111343384_0" function="internal">
        <lane id=":1111343384_0_0" index="0" allow="delivery bicycle pedestrian" speed="5.09" length="5.09" shape="311.29,1587.77 310.76,1586.45 309.96,1585.61 308.87,1585.25 307.51,1585.37"/>
    </edge>
    <edge id=":1111343384_1" function="internal">
        <lane id=":1111343384_1_0" index="0" allow="delivery bicycle pedestrian" speed="5.56" length="10.30" shape="311.29,1587.77 311.00,1584.95 311.69,1582.74 313.36,1581.13 316.02,1580.14"/>
    </edge>
    <edge id=":1111343384_2" function="internal">
        <lane id=":1111343384_2_0" index="0" allow="delivery bicycle pedestrian" speed="3.65" length="4.67" shape="311.29,1587.77 311.77,1586.41 312.45,1585.83 313.33,1586.02 314.39,1586.99"/>
    </edge>
    <edge id=":1111343384_3" function="internal">
        <lane id=":1111343384_3_0" index="0" allow="delivery bicycle pedestrian" speed="5.01" length="5.03" shape="316.71,1583.27 315.41,1583.75 314.59,1584.53 314.25,1585.62 314.39,1586.99"/>
    </edge>
    <edge id=":1111343384_4" function="internal">
        <lane id=":1111343384_4_0" index="0" allow="delivery bicycle pedestrian" speed="5.56" length="9.43" shape="316.71,1583.27 307.51,1585.37"/>
    </edge>
    <edge id=":1111343384_5" function="internal">
        <lane id=":1111343384_5_0" index="0" allow="delivery bicycle pedestrian" speed="3.65" length="4.67" shape="316.71,1583.27 315.36,1582.74 314.80,1582.05 315.02,1581.18 316.02,1580.14"/>
    </edge>
    <edge id=":1111343384_6" function="internal">
        <lane id=":1111343384_6_0" index="0" allow="delivery bicycle pedestrian" speed="5.56" length="9.49" shape="306.77,1582.26 316.02,1580.14"/>
    </edge>
    <edge id=":1111343384_7" function="internal">
        <lane id=":1111343384_7_0" index="0" allow="delivery bicycle pedestrian" speed="5.56" length="10.21" shape="306.77,1582.26 309.52,1582.01 311.71,1582.72 313.34,1584.38 314.39,1586.99"/>
    </edge>
    <edge id=":1111343384_8" function="internal">
        <lane id=":1111343384_8_0" index="0" allow="delivery bicycle pedestrian" speed="3.65" length="4.67" shape="306.77,1582.26 308.12,1582.76 308.70,1583.44 308.49,1584.32 307.51,1585.37"/>
    </edge>
    <edge id=":1111343402_0" function="internal">
        <lane id=":1111343402_0_0" index="0" allow="delivery bicycle pedestrian" speed="3.65" length="4.67" shape="362.73,1718.36 362.25,1719.72 361.57,1720.30 360.69,1720.11 359.63,1719.14"/>
    </edge>
    <edge id=":1111343412_0" function="internal">
        <lane id=":1111343412_0_0" index="0" disallow="tram rail_urban rail rail_electric bicycle pedestrian ship" speed="11.11" length="6.18" shape="527.06,1634.98 525.65,1636.07 524.71,1636.84 523.80,1637.65 522.52,1638.89"/>
        <lane id=":1111343412_0_1" index="1" disallow="tram rail_urban rail rail_electric bicycle pedestrian ship" speed="11.11" length="6.18" shape="525.10,1632.45 523.61,1633.60 522.60,1634.42 521.64,1635.29 520.29,1636.60"/>
    </edge>
    <edge id=":1111343412_2" function="internal">
        <lane id=":1111343412_2_0" index="0" allow="bicycle pedestrian" speed="2.78" length="9.87" width="2.00" shape="519.71,1632.68 527.40,1638.88"/>
    </edge>
    <edge id=":1111343415_0" function="internal">
        <lane id=":1111343415_0_0" index="0" allow="delivery bicycle pedestrian" speed="4.97" length="5.08" shape="367.99,1211.93 367.54,1210.60 366.77,1209.76 365.69,1209.41 364.30,1209.56"/>
    </edge>
    <edge id=":1111343415_1" function="internal">
        <lane id=":1111343415_1_0" index="0" disallow="tram rail_urban rail rail_electric ship" speed="8.33" length="9.44" shape="367.99,1211.93 366.19,1202.66"/>
    </edge>
    <edge id=":1111343415_2" function="internal">
        <lane id=":1111343415_2_0" index="0" disallow="tram rail_urban rail rail_electric ship" speed="3.65" length="2.34" shape="367.99,1211.93 368.56,1210.60 369.27,1210.06"/>
    </edge>
    <edge id=":1111343415_9" function="internal">
        <lane id=":1111343415_9_0" index="0" disallow="tram rail_urban rail rail_electric ship" speed="3.65" length="2.34" shape="369.27,1210.06 370.13,1210.31 371.14,1211.35"/>
    </edge>
    <edge id=":1111343415_3" function="internal">
        <lane id=":1111343415_3_0" index="0" disallow="tram rail_urban rail rail_electric ship" speed="8.33" length="9.50" shape="369.33,1202.02 371.14,1211.35"/>
    </edge>
    <edge id=":1111343415_4" function="internal">
        <lane id=":1111343415_4_0" index="0" allow="delivery bicycle pedestrian" speed="6.95" length="5.01" shape="369.33,1202.02 369.47,1204.72 368.68,1206.88"/>
    </edge>
    <edge id=":1111343415_5" function="internal">
        <lane id=":1111343415_5_0" index="0" disallow="tram rail_urban rail rail_electric ship" speed="3.65" length="2.34" shape="369.33,1202.02 368.78,1203.36 368.08,1203.91"/>
    </edge>
    <edge id=":1111343415_10" function="internal">
        <lane id=":1111343415_10_0" index="0" allow="delivery bicycle pedestrian" speed="6.95" length="5.22" shape="368.68,1206.88 366.95,1208.49 364.30,1209.56"/>
    </edge>
    <edge id=":1111343415_11" function="internal">
        <lane id=":1111343415_11_0" index="0" disallow="tram rail_urban rail rail_electric ship" speed="3.65" length="2.34" shape="368.08,1203.91 367.22,1203.67 366.19,1202.66"/>
    </edge>
    <edge id=":1111343415_6" function="internal">
        <lane id=":1111343415_6_0" index="0" disallow="tram rail_urban rail rail_electric ship" speed="5.22" length="5.25" shape="363.51,1206.46 364.91,1205.91 365.82,1205.09 366.25,1204.01 366.19,1202.66"/>
    </edge>
    <edge id=":1111343415_7" function="internal">
        <lane id=":1111343415_7_0" index="0" disallow="tram rail_urban rail rail_electric ship" speed="6.81" length="10.49" shape="363.51,1206.46 366.40,1206.15 368.63,1206.87 370.21,1208.60 371.14,1211.35"/>
    </edge>
    <edge id=":1111343415_8" function="internal">
        <lane id=":1111343415_8_0" index="0" allow="delivery bicycle pedestrian" speed="3.65" length="4.67" shape="363.51,1206.46 364.87,1206.94 365.45,1207.62 365.26,1208.49 364.30,1209.56"/>
    </edge>
    <edge id=":1111343417_0" function="internal">
        <lane id=":1111343417_0_0" index="0" allow="bicycle pedestrian" speed="2.78" length="9.45" width="2.00" shape="900.32,1345.91 894.21,1338.70"/>
    </edge>
    <edge id=":1111343417_1" function="internal">
        <lane id=":1111343417_1_0" index="0" disallow="tram rail_urban rail rail_electric bicycle pedestrian ship" speed="11.11" length="5.14" shape="900.21,1341.94 896.21,1345.18"/>
        <lane id=":1111343417_1_1" index="1" disallow="tram rail_urban rail rail_electric bicycle pedestrian ship" speed="11.11" length="5.14" shape="898.19,1339.46 894.21,1342.69"/>
    </edge>
    <edge id=":1111343419_0" function="internal">
        <lane id=":1111343419_0_0" index="0" allow="bicycle pedestrian" speed="2.78" length="8.84" width="2.00" shape="509.80,1624.77 516.73,1630.25"/>
    </edge>
    <edge id=":1111343419_1" function="internal">
        <lane id=":1111343419_1_0" index="0" disallow="tram rail_urban rail rail_electric bicycle pedestrian ship" speed="11.11" length="6.68" shape="509.18,1627.89 514.47,1623.81"/>
        <lane id=":1111343419_1_1" index="1" disallow="tram rail_urban rail rail_electric bicycle pedestrian ship" speed="11.11" length="6.68" shape="511.14,1630.42 516.42,1626.35"/>
    </edge>
    <edge id=":1111343422_0" function="internal">
        <lane id=":1111343422_0_0" index="0" allow="delivery bicycle pedestrian" speed="5.02" length="5.02" shape="349.43,1678.09 348.92,1676.81 348.11,1676.01 347.03,1675.69 345.66,1675.86"/>
    </edge>
    <edge id=":1111343422_1" function="internal">
        <lane id=":1111343422_1_0" index="0" allow="delivery bicycle pedestrian" speed="5.56" length="9.40" shape="349.43,1678.09 347.17,1668.96"/>
    </edge>
    <edge id=":1111343422_2" function="internal">
        <lane id=":1111343422_2_0" index="0" allow="delivery bicycle pedestrian" speed="3.65" length="4.67" shape="349.43,1678.09 349.92,1676.73 350.60,1676.15 351.47,1676.34 352.54,1677.31"/>
    </edge>
    <edge id=":1111343422_3" function="internal">
        <lane id=":1111343422_3_0" index="0" allow="delivery bicycle pedestrian" speed="5.56" length="9.40" shape="350.27,1668.19 352.54,1677.31"/>
    </edge>
    <edge id=":1111343422_4" function="internal">
        <lane id=":1111343422_4_0" index="0" allow="delivery bicycle pedestrian" speed="5.56" length="10.17" shape="350.27,1668.19 350.55,1670.93 349.87,1673.12 348.24,1674.76 345.66,1675.86"/>
    </edge>
    <edge id=":1111343422_5" function="internal">
        <lane id=":1111343422_5_0" index="0" allow="delivery bicycle pedestrian" speed="3.65" length="4.67" shape="350.27,1668.19 349.79,1669.55 349.11,1670.13 348.23,1669.93 347.17,1668.96"/>
    </edge>
    <edge id=":1111343422_6" function="internal">
        <lane id=":1111343422_6_0" index="0" allow="delivery bicycle pedestrian" speed="5.10" length="5.07" shape="344.83,1672.77 346.13,1672.22 346.95,1671.40 347.30,1670.32 347.17,1668.96"/>
    </edge>
    <edge id=":1111343422_7" function="internal">
        <lane id=":1111343422_7_0" index="0" allow="delivery bicycle pedestrian" speed="5.56" length="10.25" shape="344.83,1672.77 347.62,1672.43 349.84,1673.08 351.48,1674.70 352.54,1677.31"/>
    </edge>
    <edge id=":1111343422_8" function="internal">
        <lane id=":1111343422_8_0" index="0" allow="delivery bicycle pedestrian" speed="3.65" length="4.67" shape="344.83,1672.77 346.19,1673.23 346.79,1673.90 346.61,1674.77 345.66,1675.86"/>
    </edge>
    <edge id=":1111343435_0" function="internal">
        <lane id=":1111343435_0_0" index="0" allow="delivery bicycle pedestrian" speed="5.02" length="5.02" shape="334.80,1682.01 334.29,1680.73 333.49,1679.93 332.40,1679.61 331.03,1679.78"/>
    </edge>
    <edge id=":1111343435_1" function="internal">
        <lane id=":1111343435_1_0" index="0" allow="delivery bicycle pedestrian" speed="5.56" length="9.52" shape="334.80,1682.01 332.52,1672.77"/>
    </edge>
    <edge id=":1111343435_2" function="internal">
        <lane id=":1111343435_2_0" index="0" allow="delivery bicycle pedestrian" speed="5.56" length="10.26" shape="334.80,1682.01 334.52,1679.22 335.20,1676.99 336.82,1675.32 339.40,1674.22"/>
    </edge>
    <edge id=":1111343435_3" function="internal">
        <lane id=":1111343435_3_0" index="0" allow="delivery bicycle pedestrian" speed="3.65" length="4.67" shape="334.80,1682.01 335.29,1680.66 335.97,1680.08 336.85,1680.27 337.91,1681.25"/>
    </edge>
    <edge id=":1111343435_4" function="internal">
        <lane id=":1111343435_4_0" index="0" allow="delivery bicycle pedestrian" speed="5.15" length="5.18" shape="340.23,1677.31 338.93,1677.87 338.11,1678.71 337.77,1679.84 337.91,1681.25"/>
    </edge>
    <edge id=":1111343435_5" function="internal">
        <lane id=":1111343435_5_0" index="0" allow="delivery bicycle pedestrian" speed="5.56" length="9.52" shape="340.23,1677.31 331.03,1679.78"/>
    </edge>
    <edge id=":1111343435_6" function="internal">
        <lane id=":1111343435_6_0" index="0" allow="delivery bicycle pedestrian" speed="5.56" length="10.25" shape="340.23,1677.31 337.43,1677.65 335.22,1677.01 333.58,1675.38 332.52,1672.77"/>
    </edge>
    <edge id=":1111343435_7" function="internal">
        <lane id=":1111343435_7_0" index="0" allow="delivery bicycle pedestrian" speed="3.65" length="4.67" shape="340.23,1677.31 338.86,1676.85 338.27,1676.18 338.45,1675.31 339.40,1674.22"/>
    </edge>
    <edge id=":1111343435_8" function="internal">
        <lane id=":1111343435_8_0" index="0" allow="delivery bicycle pedestrian" speed="5.02" length="5.02" shape="335.62,1672.00 336.14,1673.28 336.94,1674.07 338.03,1674.39 339.40,1674.22"/>
    </edge>
    <edge id=":1111343435_9" function="internal">
        <lane id=":1111343435_9_0" index="0" allow="delivery bicycle pedestrian" speed="5.56" length="9.53" shape="335.62,1672.00 337.91,1681.25"/>
    </edge>
    <edge id=":1111343435_10" function="internal">
        <lane id=":1111343435_10_0" index="0" allow="delivery bicycle pedestrian" speed="5.56" length="10.26" shape="335.62,1672.00 335.91,1674.79 335.24,1677.01 333.61,1678.68 331.03,1679.78"/>
    </edge>
    <edge id=":1111343435_11" function="internal">
        <lane id=":1111343435_11_0" index="0" allow="delivery bicycle pedestrian" speed="3.65" length="4.67" shape="335.62,1672.00 335.13,1673.36 334.46,1673.94 333.58,1673.74 332.52,1672.77"/>
    </edge>
    <edge id=":1111343435_12" function="internal">
        <lane id=":1111343435_12_0" index="0" allow="delivery bicycle pedestrian" speed="5.14" length="5.17" shape="330.20,1676.69 331.50,1676.13 332.32,1675.30 332.66,1674.18 332.52,1672.77"/>
    </edge>
    <edge id=":1111343435_13" function="internal">
        <lane id=":1111343435_13_0" index="0" allow="delivery bicycle pedestrian" speed="5.56" length="9.52" shape="330.20,1676.69 339.40,1674.22"/>
    </edge>
    <edge id=":1111343435_14" function="internal">
        <lane id=":1111343435_14_0" index="0" allow="delivery bicycle pedestrian" speed="5.56" length="10.26" shape="330.20,1676.69 333.00,1676.35 335.22,1677.00 336.86,1678.63 337.91,1681.25"/>
    </edge>
    <edge id=":1111343435_15" function="internal">
        <lane id=":1111343435_15_0" index="0" allow="delivery bicycle pedestrian" speed="3.65" length="4.67" shape="330.20,1676.69 331.57,1677.15 332.16,1677.82 331.98,1678.70 331.03,1679.78"/>
    </edge>
    <edge id=":1111343438_0" function="internal">
        <lane id=":1111343438_0_0" index="0" allow="bicycle pedestrian" speed="2.78" length="9.46" width="2.00" shape="913.78,1306.60 919.80,1313.89"/>
    </edge>
    <edge id=":1111343438_1" function="internal">
        <lane id=":1111343438_1_0" index="0" disallow="tram rail_urban rail rail_electric bicycle pedestrian ship" speed="11.11" length="5.18" shape="913.79,1310.72 917.69,1307.32"/>
        <lane id=":1111343438_1_1" index="1" disallow="tram rail_urban rail rail_electric bicycle pedestrian ship" speed="11.11" length="5.18" shape="915.90,1313.13 919.80,1309.72"/>
    </edge>
    <edge id=":1111343445_0" function="internal">
        <lane id=":1111343445_0_0" index="0" allow="bicycle pedestrian" speed="4.17" length="4.63" width="2.00" shape="299.01,1587.41 297.94,1587.87 297.28,1588.62 297.03,1589.68 297.20,1591.04"/>
    </edge>
    <edge id=":1111343445_1" function="internal">
        <lane id=":1111343445_1_0" index="0" disallow="tram rail_urban rail rail_electric ship" speed="6.95" length="3.94" shape="299.01,1587.41 295.16,1588.24"/>
    </edge>
    <edge id=":1111343445_2" function="internal">