<?xml version="1.0" encoding="UTF-8"?>

<!-- generated on Tue Apr 16 00:19:19 2019 by Eclipse SUMO Version 1.2.0
This data file and the accompanying materials
are made available under the terms of the Eclipse Public License v2.0
which accompanies this distribution, and is available at
http://www.eclipse.org/legal/epl-v20.html
SPDX-License-Identifier: EPL-2.0
-->

<configuration xmlns:xsi="http://www.w3.org/2001/XMLSchema-instance" xsi:noNamespaceSchemaLocation="http://sumo.dlr.de/xsd/sumoConfiguration.xsd">

    <input>
        <net-file value="map.net.xml"/>
        <route-files value="map.rou-0.25-1EV0-NSF-B.xml"/>
        <route-files value="map.rou-0.25-1EV1-NSF-B.xml"/>
        <route-files value="map.rou-0.25-1EV2-NSF-B.xml"/>
        <route-files value="map.rou-0.25-1EV3-NSF-B.xml"/>
        <route-files value="map.rou-0.25-1EV4-NSF-B.xml"/>
        <route-files value="map.rou-0.25-5EV-NSF-B.xml"/>
        <route-files value="map.rou-0.25-10EV-NSF-B.xml"/>
        <route-files value="map.rou-0.25-15EV-NSF-B.xml"/>
        <route-files value="map.rou-0.25-20EV-NSF-B.xml"/>
        
        <route-files value="map.rou-0.25-1EV0-SF-B.xml"/> 
        <route-files value="map.rou-0.25-1EV1-SF-B.xml"/>        
        <route-files value="map.rou-0.25-1EV2-SF-B.xml"/>        
        <route-files value="map.rou-0.25-1EV3-SF-B.xml"/>        
        <route-files value="map.rou-0.25-1EV4-SF-B.xml"/>        
        <route-files value="map.rou-0.25-5EV-SF-B.xml"/>        
        <route-files value="map.rou-0.25-10EV-SF-B.xml"/>        
        <route-files value="map.rou-0.25-15EV-SF-B.xml"/>        
        <route-files value="map.rou-0.25-20EV-SF-B.xml"/>
        <additional-files value="map.poly.xml"/>
    </input>

	 <report>
        <xml-validation value="never"/>
        <xml-validation.net value="never"/>
        <no-step-log value="true"/>
    </report>

    <gui_only>
        <start value="true"/>
    </gui_only>
    
    <processing>
	    <lateral-resolution value="0.1"/>
	    <ignore-junction-blocker value="10"/>
	    <collision.action value="teleport"/>
	    <time-to-teleport value="90"/>
	    <max-depart-delay value="900"/>
    </processing>
    
    
</configuration>
