<?xml version="1.0" encoding="UTF-8"?>
<!-- generated on 2020-06-10 03:42:33.360260 by $Id$
  options: -n map.net.xml -r ./newroutes/B/map.rou-0.25-B-11.xml e 100 -l -p 0.25 <doubleminus>end 350
-->
<routes xmlns:xsi="http://www.w3.org/2001/XMLSchema-instance" xsi:noNamespaceSchemaLocation="http://sumo.dlr.de/xsd/routes_file.xsd">
    <trip id="0" depart="0.00" from="-47855724#3" to="152465533#2"/>
    <trip id="1" depart="0.25" from="-8244163#8" to="-48554499#1"/>
    <trip id="2" depart="0.50" from="-375226738#1" to="372687453#4"/>
    <trip id="3" depart="0.75" from="439909730#0" to="-45103225#9"/>
    <trip id="4" depart="1.00" from="95914921#5" to="68019018#12"/>
    <trip id="5" depart="1.25" from="175331216#0" to="95914921#1"/>
    <trip id="6" depart="1.50" from="43221954" to="450080910#1"/>
    <trip id="7" depart="1.75" from="-45103225#13" to="375226738#4"/>
    <trip id="8" depart="2.00" from="95691644#1" to="-47855724#2"/>
    <trip id="9" depart="2.25" from="152465533#1" to="372687453#1"/>
    <trip id="10" depart="2.50" from="450080910#7" to="43221953#4"/>
    <trip id="11" depart="2.75" from="49771813#0" to="-47855716#0"/>
    <trip id="12" depart="3.00" from="-24055648#6" to="23624133"/>
    <trip id="13" depart="3.25" from="461361121#1" to="-48554491#0"/>
    <trip id="14" depart="3.50" from="8244191#0" to="172411838#0"/>
    <trip id="15" depart="3.75" from="47855724#2" to="38961111#3"/>
    <trip id="16" depart="4.00" from="-45103225#1" to="-48554502#0"/>
    <trip id="17" depart="4.25" from="-215469475#11" to="257829604#1"/>
    <trip id="18" depart="4.50" from="303298118#1" to="47855724#2"/>
    <trip id="19" depart="4.75" from="48554499#4" to="-314433190#3"/>
    <trip id="20" depart="5.00" from="386808188#0" to="-375226738#3"/>
    <trip id="21" depart="5.25" from="372830912#0" to="24484050"/>
    <trip id="22" depart="5.50" from="-23624843" to="95914921#7"/>
    <trip id="23" depart="5.75" from="215469475#4" to="68019018#9"/>
    <trip id="24" depart="6.00" from="24055619#3" to="-43221958#0"/>
    <trip id="25" depart="6.25" from="-48554493#3" to="23624133"/>
    <trip id="26" depart="6.50" from="-23628453#3" to="43835122#4"/>
    <trip id="27" depart="6.75" from="24484048#4" to="45103220#6"/>
    <trip id="28" depart="7.00" from="45103222#1" to="257829604#5"/>
    <trip id="29" depart="7.25" from="8244191#0" to="-45103218#14"/>
    <trip id="30" depart="7.50" from="-48554491#1" to="43835122#3"/>
    <trip id="31" depart="7.75" from="-45103218#11" to="8244134#5"/>
    <trip id="32" depart="8.00" from="-43221958#2" to="-48554493#2"/>
    <trip id="33" depart="8.25" from="43835122#4" to="450080910#4"/>
    <trip id="34" depart="8.50" from="-43221953#5" to="-24484050"/>
    <trip id="35" depart="8.75" from="8244168#1" to="43221953#0"/>
    <trip id="36" depart="9.00" from="-386808188#1" to="-43221953#4"/>
    <trip id="37" depart="9.25" from="386808188#1" to="24055620#1"/>
    <trip id="38" depart="9.50" from="-24484048#4" to="171004774#1"/>
    <trip id="39" depart="9.75" from="8244134#5" to="43835126"/>
    <trip id="40" depart="10.00" from="-8244134#2" to="24484048#4"/>
    <trip id="41" depart="10.25" from="8244160#10" to="-257829604#0"/>
    <trip id="42" depart="10.50" from="-372830909" to="48554496"/>
    <trip id="43" depart="10.75" from="-43221948#2" to="48554496"/>
    <trip id="44" depart="11.00" from="48554488#1" to="-8244160#9"/>
    <trip id="45" depart="11.25" from="372687453#1" to="95691644#2"/>
    <trip id="46" depart="11.50" from="375226733#1" to="175331216#2"/>
    <trip id="47" depart="11.75" from="45103225#2" to="-8244134#2"/>
    <trip id="48" depart="12.00" from="47855721#1" to="450080910#1"/>
    <trip id="49" depart="12.25" from="302635397#1" to="-47855725#3"/>
    <trip id="50" depart="12.50" from="372687453#4" to="-48554491#0"/>
    <trip id="51" depart="12.75" from="95914920#2" to="-8244134#2"/>
    <trip id="52" depart="13.00" from="-43221958#1" to="47855708#6"/>
    <trip id="53" depart="13.25" from="8244191#1" to="43221948#0"/>
    <trip id="54" depart="13.50" from="8244191#0" to="-8244160#9"/>
    <trip id="55" depart="13.75" from="-24055648#3" to="-200911531#3"/>
    <trip id="56" depart="14.00" from="43221958#1" to="-175331216#2"/>
    <trip id="57" depart="14.25" from="24055648#9" to="-24055619#3"/>
    <trip id="58" depart="14.50" from="8244134#2" to="372687453#4"/>
    <trip id="59" depart="14.75" from="-450080909#3" to="-180020584"/>
    <trip id="60" depart="15.00" from="48554498#0" to="215469475#11"/>
    <trip id="61" depart="15.25" from="-43835122#3" to="215469475#11"/>
    <trip id="62" depart="15.50" from="-48554499#2" to="8244134#7"/>
    <trip id="63" depart="15.75" from="-550469382#3" to="450080910#4"/>
    <trip id="64" depart="16.00" from="200911531#4" to="8244191#1"/>
    <trip id="65" depart="16.25" from="24484043#2" to="-8244160#1"/>
    <trip id="66" depart="16.50" from="48554490#1" to="-24490178#0"/>
    <trip id="67" depart="16.75" from="-550469382#3" to="23628453#5"/>
    <trip id="68" depart="17.00" from="8244203" to="372687453#4"/>
    <trip id="69" depart="17.25" from="95914920#1" to="372687453#1"/>
    <trip id="70" depart="17.50" from="-214712272#1" to="257829604#8"/>
    <trip id="71" depart="17.75" from="8244134#5" to="200911531#0"/>
    <trip id="72" depart="18.00" from="257829604#5" to="184497382#3"/>
    <trip id="73" depart="18.25" from="-171004774#1" to="303298136#2"/>
    <trip id="74" depart="18.50" from="-95914925#1" to="-45103220#6"/>
    <trip id="75" depart="18.75" from="45103225#9" to="-152466225#1"/>
    <trip id="76" depart="19.00" from="-257829604#2" to="-95914920#1"/>
    <trip id="77" depart="19.25" from="-95691644#2" to="-48554496"/>
    <trip id="78" depart="19.50" from="314433190#2" to="439909730#0"/>
    <trip id="79" depart="19.75" from="184497381#0" to="-43221953#4"/>
    <trip id="80" depart="20.00" from="372687453#1" to="45103218#6"/>
    <trip id="81" depart="20.25" from="8244160#2" to="172411838#0"/>
    <trip id="82" depart="20.50" from="8244191#1" to="-68019018#6"/>
    <trip id="83" depart="20.75" from="-95691644#3" to="-48554490#0"/>
    <trip id="84" depart="21.00" from="47855716#0" to="95691644#2"/>
    <trip id="85" depart="21.25" from="8244134#2" to="-43221958#1"/>
    <trip id="86" depart="21.50" from="-450080909#2" to="-386808188#0"/>
    <trip id="87" depart="21.75" from="-257829604#5" to="257829604#0"/>
    <trip id="88" depart="22.00" from="-45103220#4" to="550469382#3"/>
    <trip id="89" depart="22.25" from="-550469382#0" to="-43221953#2"/>
    <trip id="90" depart="22.50" from="314433190#1" to="-8244168#8"/>
    <trip id="91" depart="22.75" from="461361121#0" to="-47855725#1"/>
    <trip id="92" depart="23.00" from="-24484048#1" to="-45103225#10"/>
    <trip id="93" depart="23.25" from="214712272#1" to="24055619#3"/>
    <trip id="94" depart="23.50" from="439909730#0" to="68019018#5"/>
    <trip id="95" depart="23.75" from="43221948#1" to="45103225#11"/>
    <trip id="96" depart="24.00" from="24490178#0" to="48554496"/>
    <trip id="97" depart="24.25" from="-219125945#2" to="-43835122#3"/>
    <trip id="98" depart="24.50" from="45103225#9" to="-47855724#3"/>
    <trip id="99" depart="24.75" from="-48554498#0" to="95691689"/>
    <trip id="100" depart="25.00" from="550469382#1" to="-45103225#12"/>
    <trip id="101" depart="25.25" from="24484049#2" to="-314433189"/>
    <trip id="102" depart="25.50" from="95914920#3" to="-45103225#4"/>
    <trip id="103" depart="25.75" from="43221955#0" to="184497382#3"/>
    <trip id="104" depart="26.00" from="-48554499#0" to="180020584"/>
    <trip id="105" depart="26.25" from="-214712272#1" to="-450080909#1"/>
    <trip id="106" depart="26.50" from="48554488#1" to="-171004774#3"/>
    <trip id="107" depart="26.75" from="-48554496" to="152466225#1"/>
    <trip id="108" depart="27.00" from="-314433189" to="450080910#1"/>
    <trip id="109" depart="27.25" from="450080909#3" to="152466225#1"/>
    <trip id="110" depart="27.50" from="-48554502#2" to="450080910#5"/>
    <trip id="111" depart="27.75" from="372687453#1" to="-23628453#2"/>
    <trip id="112" depart="28.00" from="8244203" to="-47855724#3"/>
    <trip id="113" depart="28.25" from="43221955#1" to="-8244134#2"/>
    <trip id="114" depart="28.50" from="-48554502#2" to="-8244191#1"/>
    <trip id="115" depart="28.75" from="-8244191#1" to="95914921#4"/>
    <trip id="116" depart="29.00" from="-43835122#4" to="-8244160#10"/>
    <trip id="117" depart="29.25" from="-95914920#1" to="24055619#1"/>
    <trip id="118" depart="29.50" from="95914921#7" to="-43835122#3"/>
    <trip id="119" depart="29.75" from="-43221953#1" to="45103225#2"/>
    <trip id="120" depart="30.00" from="68019018#5" to="8244160#11"/>
    <trip id="121" depart="30.25" from="95914921#7" to="-362554866#0"/>
    <trip id="122" depart="30.50" from="8244191#1" to="-450080909#1"/>
    <trip id="123" depart="30.75" from="450080910#0" to="-24055648#1"/>
    <trip id="124" depart="31.00" from="184497382#0" to="-45103225#2"/>
    <trip id="125" depart="31.25" from="-8244168#5" to="48554491#0"/>
    <trip id="126" depart="31.50" from="8244163#8" to="95914921#7"/>
    <trip id="127" depart="31.75" from="49771811#2" to="-8244134#2"/>
    <trip id="128" depart="32.00" from="24055619#0" to="95691644#1"/>
    <trip id="129" depart="32.25" from="47855724#2" to="152465532#4"/>
    <trip id="130" depart="32.50" from="-8244134#2" to="375499371#2"/>
    <trip id="131" depart="32.75" from="-45103218#4" to="-257829604#1"/>
    <trip id="132" depart="33.00" from="-48554493#2" to="95914921#4"/>
    <trip id="133" depart="33.25" from="8244191#0" to="-314433190#1"/>
    <trip id="134" depart="33.50" from="-38961111#1" to="8244160#11"/>
    <trip id="135" depart="33.75" from="47638714#2" to="-8244191#1"/>
    <trip id="136" depart="34.00" from="-8244163#5" to="8244191#1"/>
    <trip id="137" depart="34.25" from="550469382#0" to="8244134#7"/>
    <trip id="138" depart="34.50" from="-48554493#1" to="45103220#8"/>
    <trip id="139" depart="34.75" from="184497382#0" to="24484049#3"/>
    <trip id="140" depart="35.00" from="-362554866#0" to="-450080909#3"/>
    <trip id="141" depart="35.25" from="43221958#3" to="450080910#4"/>
    <trip id="142" depart="35.50" from="47855724#2" to="372687453#4"/>
    <trip id="143" depart="35.75" from="450080910#1" to="45103220#8"/>
    <trip id="144" depart="36.00" from="-152462892#1" to="-550469382#1"/>
    <trip id="145" depart="36.25" from="24055619#0" to="95914921#0"/>
    <trip id="146" depart="36.50" from="-45103225#9" to="-24484048#4"/>
    <trip id="147" depart="36.75" from="-375226738#4" to="8244168#6"/>
    <trip id="148" depart="37.00" from="-45103218#6" to="-43221954"/>
    <trip id="149" depart="37.25" from="-47855724#1" to="45103220#8"/>
    <trip id="150" depart="37.50" from="48554491#0" to="-43221948#2"/>
    <trip id="151" depart="37.75" from="48554498#0" to="24484048#1"/>
    <trip id="152" depart="38.00" from="-214712272#0" to="-47855720#1"/>
    <trip id="153" depart="38.25" from="-48554499#2" to="8244134#2"/>
    <trip id="154" depart="38.50" from="375226733#1" to="-314433190#1"/>
    <trip id="155" depart="38.75" from="-8244134#2" to="-47855724#3"/>
    <trip id="156" depart="39.00" from="24484049#6" to="450080909#3"/>
    <trip id="157" depart="39.25" from="450080910#1" to="184497382#0"/>
    <trip id="158" depart="39.50" from="24055619#3" to="-43835126"/>
    <trip id="159" depart="39.75" from="95914921#1" to="48554502#2"/>
    <trip id="160" depart="40.00" from="8244163#8" to="45103218#5"/>
    <trip id="161" depart="40.25" from="-172411838#0" to="450080910#9"/>
    <trip id="162" depart="40.50" from="24484050" to="68019022"/>
    <trip id="163" depart="40.75" from="-24055648#0" to="95691644#2"/>
    <trip id="164" depart="41.00" from="-68019018#12" to="45103220#8"/>
    <trip id="165" depart="41.25" from="-47855724#2" to="-48554496"/>
    <trip id="166" depart="41.50" from="-38961111#2" to="450080909#2"/>
    <trip id="167" depart="41.75" from="-68019018#12" to="153991786"/>
    <trip id="168" depart="42.00" from="-8244134#2" to="24055619#3"/>
    <trip id="169" depart="42.25" from="24484048#1" to="-257829604#2"/>
    <trip id="170" depart="42.50" from="-257829604#5" to="372687453#1"/>
    <trip id="171" depart="42.75" from="24484043#0" to="-8244191#1"/>
    <trip id="172" depart="43.00" from="-8244134#2" to="-38961111#1"/>
    <trip id="173" depart="43.25" from="95914921#7" to="48554491#0"/>
    <trip id="174" depart="43.50" from="-8244134#2" to="24484048#4"/>
    <trip id="175" depart="43.75" from="43221953#4" to="8244191#1"/>
    <trip id="176" depart="44.00" from="-386808188#1" to="184497382#3"/>
    <trip id="177" depart="44.25" from="48554491#0" to="-68019018#6"/>
    <trip id="178" depart="44.50" from="47855720#1" to="48554493#3"/>
    <trip id="179" depart="44.75" from="-24484048#4" to="48554493#1"/>
    <trip id="180" depart="45.00" from="8244160#2" to="-24484048#7"/>
    <trip id="181" depart="45.25" from="-152466225#1" to="-48554488#1"/>
    <trip id="182" depart="45.50" from="48554496" to="375226738#4"/>
    <trip id="183" depart="45.75" from="8244168#8" to="24055619#3"/>
    <trip id="184" depart="46.00" from="24055620#1" to="8244134#2"/>
    <trip id="185" depart="46.25" from="-24055619#3" to="-38961111#1"/>
    <trip id="186" depart="46.50" from="68019018#11" to="43221954"/>
    <trip id="187" depart="46.75" from="-8244134#2" to="23624129"/>
    <trip id="188" depart="47.00" from="45103218#0" to="-8244168#7"/>
    <trip id="189" depart="47.25" from="8244134#2" to="-200911531#0"/>
    <trip id="190" depart="47.50" from="314433190#3" to="-47855724#3"/>
    <trip id="191" depart="47.75" from="-8244134#2" to="95914920#3"/>
    <trip id="192" depart="48.00" from="-386808188#0" to="439906258#2"/>
    <trip id="193" depart="48.25" from="450080910#4" to="-47855724#2"/>
    <trip id="194" depart="48.50" from="-24055619#3" to="95914920#5"/>
    <trip id="195" depart="48.75" from="49771812#1" to="95691689"/>
    <trip id="196" depart="49.00" from="47855716#0" to="43221958#4"/>
    <trip id="197" depart="49.25" from="24484049#3" to="23624133"/>
    <trip id="198" depart="49.50" from="-450080909#3" to="152465534"/>
    <trip id="199" depart="49.75" from="24484049#4" to="24484049#4"/>
    <trip id="200" depart="50.00" from="48554491#0" to="372687453#1"/>
    <trip id="201" depart="50.25" from="184497382#3" to="47855708#12"/>
    <trip id="202" depart="50.50" from="152465533#2" to="-314433190#2"/>
    <trip id="203" depart="50.75" from="47940369#0" to="-8244191#1"/>
    <trip id="204" depart="51.00" from="-45103220#8" to="215469475#12"/>
    <trip id="205" depart="51.25" from="461361121#1" to="-314433190#2"/>
    <trip id="206" depart="51.50" from="152462892#1" to="24055648#1"/>
    <trip id="207" depart="51.75" from="48554491#0" to="24484049#2"/>
    <trip id="208" depart="52.00" from="95914921#7" to="-47855724#3"/>
    <trip id="209" depart="52.25" from="372687453#1" to="450080910#1"/>
    <trip id="210" depart="52.50" from="-49771813#2" to="372687453#1"/>
    <trip id="211" depart="52.75" from="153767954#2" to="45103220#8"/>
    <trip id="212" depart="53.00" from="-43221958#1" to="95914921#7"/>
    <trip id="213" depart="53.25" from="47855720#1" to="-43835126"/>
    <trip id="214" depart="53.50" from="8244134#2" to="8244160#7"/>
    <trip id="215" depart="53.75" from="-68019018#9" to="550469382#0"/>
    <trip id="216" depart="54.00" from="48554488#1" to="47855708#9"/>
    <trip id="217" depart="54.25" from="372687453#1" to="152465533#2"/>
    <trip id="218" depart="54.50" from="-24055648#9" to="-215469475#10"/>
    <trip id="219" depart="54.75" from="43221953#5" to="175331216#5"/>
    <trip id="220" depart="55.00" from="175331216#0" to="48554488#0"/>
    <trip id="221" depart="55.25" from="-550469382#3" to="47855724#1"/>
    <trip id="222" depart="55.50" from="-43221955#1" to="-43221953#2"/>
    <trip id="223" depart="55.75" from="24484043#0" to="-215469475#10"/>
    <trip id="224" depart="56.00" from="450080910#1" to="8244134#2"/>
    <trip id="225" depart="56.25" from="48554488#1" to="68019018#6"/>
    <trip id="226" depart="56.50" from="450080910#1" to="47940369#1"/>
    <trip id="227" depart="56.75" from="372687453#4" to="-24484048#0"/>
    <trip id="228" depart="57.00" from="-172411838#0" to="-47855716#0"/>
    <trip id="229" depart="57.25" from="-47855724#3" to="45103218#2"/>
    <trip id="230" depart="57.50" from="372687453#1" to="-8244134#2"/>
    <trip id="231" depart="57.75" from="-47855724#3" to="450080909#3"/>
    <trip id="232" depart="58.00" from="175331216#2" to="-8244191#1"/>
    <trip id="233" depart="58.25" from="372830909" to="-8244191#1"/>
    <trip id="234" depart="58.50" from="-24055648#1" to="-172411838#0"/>
    <trip id="235" depart="58.75" from="95914921#7" to="372687453#1"/>
    <trip id="236" depart="59.00" from="-24055619#1" to="8244134#7"/>
    <trip id="237" depart="59.25" from="45103218#5" to="-48554494"/>
    <trip id="238" depart="59.50" from="-257829604#2" to="314433190#2"/>
    <trip id="239" depart="59.75" from="8244203" to="200911531#0"/>
    <trip id="240" depart="60.00" from="171004774#3" to="95914921#1"/>
    <trip id="241" depart="60.25" from="-24055619#3" to="-24484048#0"/>
    <trip id="242" depart="60.50" from="-302635397#2" to="-8244160#6"/>
    <trip id="243" depart="60.75" from="-8244134#2" to="95691644#1"/>
    <trip id="244" depart="61.00" from="8244191#1" to="184497382#3"/>
    <trip id="245" depart="61.25" from="-23628453#3" to="180020584"/>
    <trip id="246" depart="61.50" from="-45103218#6" to="-175331216#0"/>
    <trip id="247" depart="61.75" from="-8244191#1" to="461361121#1"/>
    <trip id="248" depart="62.00" from="-48554493#2" to="45103218#13"/>
    <trip id="249" depart="62.25" from="43221954" to="-152465534"/>
    <trip id="250" depart="62.50" from="-8244163#5" to="-47855724#2"/>
    <trip id="251" depart="62.75" from="-24055619#3" to="-8244134#2"/>
    <trip id="252" depart="63.00" from="8244191#1" to="302635397#1"/>
    <trip id="253" depart="63.25" from="95691644#2" to="257829604#0"/>
    <trip id="254" depart="63.50" from="439906258#2" to="-24055619#3"/>
    <trip id="255" depart="63.75" from="257829604#8" to="439909729#2"/>
    <trip id="256" depart="64.00" from="48554491#0" to="-175331216#3"/>
    <trip id="257" depart="64.25" from="450080910#4" to="257829604#0"/>
    <trip id="258" depart="64.50" from="48554499#2" to="49771812#1"/>
    <trip id="259" depart="64.75" from="-48554494" to="8244191#1"/>
    <trip id="260" depart="65.00" from="372687453#1" to="-95914920#1"/>
    <trip id="261" depart="65.25" from="175331216#0" to="48554491#0"/>
    <trip id="262" depart="65.50" from="43221955#1" to="48554494"/>
    <trip id="263" depart="65.75" from="-450080909#3" to="-48554488#0"/>
    <trip id="264" depart="66.00" from="-8244134#2" to="184497382#3"/>
    <trip id="265" depart="66.25" from="-8244134#2" to="-303298136#3"/>
    <trip id="266" depart="66.50" from="-450080909#3" to="-45103220#4"/>
    <trip id="267" depart="66.75" from="8244168#8" to="439909730#1"/>
    <trip id="268" depart="67.00" from="45103222#1" to="257829604#2"/>
    <trip id="269" depart="67.25" from="8244134#2" to="-8244191#1"/>
    <trip id="270" depart="67.50" from="95691644#2" to="-43221948#1"/>
    <trip id="271" depart="67.75" from="314433189" to="-8244134#2"/>
    <trip id="272" depart="68.00" from="47855724#2" to="461361121#1"/>
    <trip id="273" depart="68.25" from="372687453#4" to="95914921#6"/>
    <trip id="274" depart="68.50" from="43221953#4" to="-24484050"/>
    <trip id="275" depart="68.75" from="-215469475#12" to="-8244134#5"/>
    <trip id="276" depart="69.00" from="45103218#5" to="-8244134#2"/>
    <trip id="277" depart="69.25" from="-8244134#2" to="-45103225#11"/>
    <trip id="278" depart="69.50" from="95914921#4" to="23628453#3"/>
    <trip id="279" depart="69.75" from="-8244191#1" to="184497381#0"/>
    <trip id="280" depart="70.00" from="-95914920#2" to="450080910#1"/>
    <trip id="281" depart="70.25" from="-375226738#1" to="8244163#5"/>
    <trip id="282" depart="70.50" from="172411838#0" to="152465531#0"/>
    <trip id="283" depart="70.75" from="95914920#1" to="-214712272#1"/>
    <trip id="284" depart="71.00" from="-550469382#1" to="95691644#2"/>
    <trip id="285" depart="71.25" from="-24055648#0" to="450080909#3"/>
    <trip id="286" depart="71.50" from="8244134#5" to="-303298111#1"/>
    <trip id="287" depart="71.75" from="450080910#1" to="-24484048#4"/>
    <trip id="288" depart="72.00" from="257829604#0" to="-43221953#5"/>
    <trip id="289" depart="72.25" from="48554502#0" to="-47855720#1"/>
    <trip id="290" depart="72.50" from="-49771812#1" to="372687453#1"/>
    <trip id="291" depart="72.75" from="47855708#7" to="450080909#1"/>
    <trip id="292" depart="73.00" from="450080910#4" to="43835126"/>
    <trip id="293" depart="73.25" from="24484048#4" to="8244168#6"/>
    <trip id="294" depart="73.50" from="-214712272#1" to="45103225#5"/>
    <trip id="295" depart="73.75" from="314433190#2" to="68019018#0"/>
    <trip id="296" depart="74.00" from="8244160#10" to="-152466225#1"/>
    <trip id="297" depart="74.25" from="68019018#7" to="152465534"/>
    <trip id="298" depart="74.50" from="303298136#3" to="-95691671#1"/>
    <trip id="299" depart="74.75" from="24055648#6" to="43221953#5"/>
    <trip id="300" depart="75.00" from="8244191#0" to="95914921#1"/>
    <trip id="301" depart="75.25" from="-23624129" to="43221953#4"/>
    <trip id="302" depart="75.50" from="-47638714#0" to="-152466225#1"/>
    <trip id="303" depart="75.75" from="257829604#5" to="153991786"/>
    <trip id="304" depart="76.00" from="48554493#1" to="375226738#2"/>
    <trip id="305" depart="76.25" from="8244160#2" to="-8244134#2"/>
    <trip id="306" depart="76.50" from="24484043#0" to="-45103225#9"/>
    <trip id="307" depart="76.75" from="8244163#3" to="24484048#4"/>
    <trip id="308" depart="77.00" from="49771813#0" to="-8244134#2"/>
    <trip id="309" depart="77.25" from="8244134#5" to="-152465532#5"/>
    <trip id="310" depart="77.50" from="-257829604#5" to="184497382#1"/>
    <trip id="311" depart="77.75" from="-48554499#1" to="-23628453#2"/>
    <trip id="312" depart="78.00" from="450080910#1" to="48554488#0"/>
    <trip id="313" depart="78.25" from="-47855724#3" to="38961111#2"/>
    <trip id="314" depart="78.50" from="-45103225#2" to="8244134#7"/>
    <trip id="315" depart="78.75" from="153767954#3" to="-47855725#0"/>
    <trip id="316" depart="79.00" from="-302635397#3" to="-172411838#0"/>
    <trip id="317" depart="79.25" from="24484049#5" to="-8244134#2"/>
    <trip id="318" depart="79.50" from="-95914920#2" to="-49771812#1"/>
    <trip id="319" depart="79.75" from="-180020584" to="23628453#2"/>
    <trip id="320" depart="80.00" from="152465534" to="-8244203"/>
    <trip id="321" depart="80.25" from="200911531#3" to="-24490178#0"/>
    <trip id="322" depart="80.50" from="303298136#2" to="-8244191#1"/>
    <trip id="323" depart="80.75" from="-43835122#4" to="24055619#1"/>
    <trip id="324" depart="81.00" from="8244191#1" to="49771812#1"/>
    <trip id="325" depart="81.25" from="43221954" to="-43221948#2"/>
    <trip id="326" depart="81.50" from="-43221953#6" to="-48554494"/>
    <trip id="327" depart="81.75" from="23628453#3" to="-214712272#1"/>
    <trip id="328" depart="82.00" from="8244160#11" to="152465532#5"/>
    <trip id="329" depart="82.25" from="8244134#5" to="-386808188#1"/>
    <trip id="330" depart="82.50" from="550469382#1" to="461361121#1"/>
    <trip id="331" depart="82.75" from="24055648#1" to="8244134#5"/>
    <trip id="332" depart="83.00" from="-45103225#10" to="-24484048#0"/>
    <trip id="333" depart="83.25" from="-8244163#3" to="-43221953#5"/>
    <trip id="334" depart="83.50" from="-172411838#0" to="48554498#0"/>
    <trip id="335" depart="83.75" from="152465534" to="48554488#0"/>
    <trip id="336" depart="84.00" from="450080910#7" to="184497382#0"/>
    <trip id="337" depart="84.25" from="-257829604#6" to="-45103218#11"/>
    <trip id="338" depart="84.50" from="-48554502#0" to="-48554502#0"/>
    <trip id="339" depart="84.75" from="372687453#1" to="68019018#11"/>
    <trip id="340" depart="85.00" from="-172411838#0" to="-24484048#4"/>
    <trip id="341" depart="85.25" from="95691644#1" to="43221953#1"/>
    <trip id="342" depart="85.50" from="47855725#4" to="24484043#1"/>
    <trip id="343" depart="85.75" from="-153767954#1" to="-314433190#2"/>
    <trip id="344" depart="86.00" from="-450080909#1" to="68019022"/>
    <trip id="345" depart="86.25" from="45103220#4" to="-95914920#2"/>
    <trip id="346" depart="86.50" from="-48554490#1" to="95914921#7"/>
    <trip id="347" depart="86.75" from="47855716#0" to="-48554498#0"/>
    <trip id="348" depart="87.00" from="180020584" to="-95914920#3"/>
    <trip id="349" depart="87.25" from="-95914925#1" to="450080910#1"/>
    <trip id="350" depart="87.50" from="152465534" to="95914921#7"/>
    <trip id="351" depart="87.75" from="43835126" to="43221955#1"/>
    <trip id="352" depart="88.00" from="302635397#1" to="-24055619#3"/>
    <trip id="353" depart="88.25" from="-215469475#13" to="439909729#1"/>
    <trip id="354" depart="88.50" from="-8244191#1" to="450080910#4"/>
    <trip id="355" depart="88.75" from="450080909#3" to="-95914920#3"/>
    <trip id="356" depart="89.00" from="-48554499#5" to="-450080909#3"/>
    <trip id="357" depart="89.25" from="-8244134#2" to="-24484048#1"/>
    <trip id="358" depart="89.50" from="-214712272#1" to="175331216#1"/>
    <trip id="359" depart="89.75" from="375226738#1" to="303298118#0"/>
    <trip id="360" depart="90.00" from="-48554493#1" to="-8244134#5"/>
    <trip id="361" depart="90.25" from="-303298128#2" to="48554491#0"/>
    <trip id="362" depart="90.50" from="43221955#0" to="43221953#0"/>
    <trip id="363" depart="90.75" from="372687453#4" to="48554488#0"/>
    <trip id="364" depart="91.00" from="24484048#1" to="439909730#1"/>
    <trip id="365" depart="91.25" from="257829604#5" to="38961111#1"/>
    <trip id="366" depart="91.50" from="68019020" to="38961111#3"/>
    <trip id="367" depart="91.75" from="8244160#11" to="-386808188#0"/>
    <trip id="368" depart="92.00" from="43835122#3" to="43221954"/>
    <trip id="369" depart="92.25" from="95914920#0" to="43221955#1"/>
    <trip id="370" depart="92.50" from="-302635397#1" to="375226738#4"/>
    <trip id="371" depart="92.75" from="-302635397#3" to="95914921#1"/>
    <trip id="372" depart="93.00" from="-8244134#7" to="-48554490#1"/>
    <trip id="373" depart="93.25" from="550469382#1" to="450080910#2"/>
    <trip id="374" depart="93.50" from="-8244191#1" to="372687453#1"/>
    <trip id="375" depart="93.75" from="184497382#0" to="372687453#1"/>
    <trip id="376" depart="94.00" from="24484048#4" to="375226738#1"/>
    <trip id="377" depart="94.25" from="-47855724#3" to="172411838#0"/>
    <trip id="378" depart="94.50" from="8244163#3" to="47638714#0"/>
    <trip id="379" depart="94.75" from="372830910#0" to="-48554499#4"/>
    <trip id="380" depart="95.00" from="372687453#1" to="-95914920#1"/>
    <trip id="381" depart="95.25" from="23628453#3" to="215469475#12"/>
    <trip id="382" depart="95.50" from="-48554490#0" to="152466225#1"/>
    <trip id="383" depart="95.75" from="-49771812#1" to="-45103218#4"/>
    <trip id="384" depart="96.00" from="-386808188#1" to="-47855716#0"/>
    <trip id="385" depart="96.25" from="95914921#4" to="-8244160#9"/>
    <trip id="386" depart="96.50" from="47855708#6" to="-303298118#0"/>
    <trip id="387" depart="96.75" from="23628453#3" to="-24055648#9"/>
    <trip id="388" depart="97.00" from="-49771813#2" to="-257829604#2"/>
    <trip id="389" depart="97.25" from="-48554499#4" to="8244168#8"/>
    <trip id="390" depart="97.50" from="-43221955#0" to="184497382#3"/>
    <trip id="391" depart="97.75" from="-302635397#2" to="95914921#4"/>
    <trip id="392" depart="98.00" from="302635397#2" to="47855708#3"/>
    <trip id="393" depart="98.25" from="372687453#1" to="43221958#1"/>
    <trip id="394" depart="98.50" from="-175331216#2" to="-450080909#2"/>
    <trip id="395" depart="98.75" from="-24055648#9" to="48554496"/>
    <trip id="396" depart="99.00" from="-48554496" to="375226737#1"/>
    <trip id="397" depart="99.25" from="8244191#1" to="-152465532#5"/>
    <trip id="398" depart="99.50" from="172411838#0" to="-257829604#7"/>
    <trip id="399" depart="99.75" from="68019018#8" to="24484049#3"/>
    <trip id="400" depart="100.00" from="-153767954#8" to="-375226738#2"/>
    <trip id="401" depart="100.25" from="215469475#10" to="8244191#1"/>
    <trip id="402" depart="100.50" from="45103218#5" to="-45103225#9"/>
    <trip id="403" depart="100.75" from="-153767954#1" to="-48554502#0"/>
    <trip id="404" depart="101.00" from="257829604#3" to="8244134#7"/>
    <trip id="405" depart="101.25" from="184497382#3" to="184497382#0"/>
    <trip id="406" depart="101.50" from="-180020591" to="-95914920#2"/>
    <trip id="407" depart="101.75" from="-38961111#1" to="-8244191#1"/>
    <trip id="408" depart="102.00" from="8244160#9" to="153991786"/>
    <trip id="409" depart="102.25" from="-8244191#1" to="43221955#0"/>
    <trip id="410" depart="102.50" from="-23624133" to="8244168#5"/>
    <trip id="411" depart="102.75" from="200911531#1" to="95914921#4"/>
    <trip id="412" depart="103.00" from="23628453#2" to="8244191#1"/>
    <trip id="413" depart="103.25" from="47855724#2" to="450080909#1"/>
    <trip id="414" depart="103.50" from="-43835126" to="-8244160#0"/>
    <trip id="415" depart="103.75" from="48554498#0" to="-171004774#5"/>
    <trip id="416" depart="104.00" from="219125945#2" to="24490178#2"/>
    <trip id="417" depart="104.25" from="184497382#3" to="-48554494"/>
    <trip id="418" depart="104.50" from="-47855724#2" to="-8244191#1"/>