<configuration>
    <input>
       <net-file value="circles.net.xml"/>
       <route-files value="circles.rou.xml"/>
    </input>
</configuration>
